 ****** HSPICE -- C-2009.03-SP1 32-BIT (May 25 2009) winnt ******               
  Copyright (C) 2009 Synopsys, Inc. All Rights Reserved.                        
  Unpublished-rights reserved under US copyright laws.
  This program is protected by law and is subject to the 
  terms and conditions of the license agreement from Synopsys.
  Use of this program is your acceptance to be bound by the 
  license agreement. HSPICE is the trademark of Synopsys, Inc.
  Input File: C:\Users\Administrator\Desktop\MultiLevel\cw2Model.sp             
  lic:  
  lic: FLEXlm: v8.5b 
  lic: USER:   Administrator        HOSTNAME: WIN-HBGPFB5Q4D3 
  lic: HOSTID: "002268384615 005056c00001 005056c00008" PID:      624 
  lic: Using FLEXlm license file: 
  lic: C:\synopsys\hspice_2009-03.lic 
  lic: Checkout 1 hspice 
  lic: License/Maintenance for hspice will expire on 31-dec-2020/2007.9 
  lic: NODE LOCKED license on hostid "002268384615 005056c00001 005056c00008" 
  lic:   
 Init: read install configuration file: C:\synopsys\Hspice_C-2009.03-SP1\meta.cfg
 Init: hspice initialization file: C:\synopsys\Hspice_C-2009.03-SP1\hspice.ini




1****** HSPICE -- C-2009.03-SP1 32-BIT (May 25 2009) winnt ******               
 ******  
 ** 60 cascaded, 2 paralleled cells

  ******  diode model parameters tnom=  25.000 temp=  25.000 *****
 ********************************************************
 *** common model parameters model name:   0:diode111****
 ********************************************************

     names  values   units     names  values   units     names  values   units
     -----  ------   -----     -----  ------   -----     -----  ------   -----

   1*** dc breakdown parameters ***
       vb=   0.    volts        ibv=   1.00m amps   

   2*** parasitic resistance parameters ***
       rs=   0.    ohms   

   3*** capacitance parameters ***
       fc= 500.00m              fcs= 500.00m                m= 500.00m        
     mjsw= 330.00m               pb= 800.00m volts        php= 800.00m volts  
       tt=   0.    secs         cjo=   0.    f/area       cjp=   0.    f/pj   

   4*** temperature effect parameters ***
     tlev=   0.               tlevc=   0.                 tcv=   0.    v/deg k
      trs=   0.    /deg         cta=   0.    /deg         ctp=   0.    /deg   
      xti=   3.00            xtitun=   3.00               keg=   1.00         
       eg=   1.11  ev          gap1= 702.00u  ev/deg     gap2=   1.11k  deg   
     ttt1=   0.    /deg        ttt2=   0.    /deg2        tm1=   0.    /deg   
      tm2=   0.    /deg2        tpb=   0.    v/deg k     tphp=   0.    v/deg k
     tref=  25.00   deg c 

   5*** noise parameters ***
       kf=   0.                  af=   1.00         

   ***  level   1  model parameters  ***

    level=   1.00                is=   1.00u amps         jsw=   0.    amps   
        n=  15.00               nbv=  15.00                ik=   0.    amp    
     area=   1.00                pj=   0.                 ikr=   0.    amp    
    expli=   0.    amps      explir=   0.    amps        jtun=   0.    amps   
   jtunsw=   0.    amps        ntun=  30.00         
  
 ********************************************************
 *** common model parameters model name:   0:diode11_****
 ********************************************************

     names  values   units     names  values   units     names  values   units
     -----  ------   -----     -----  ------   -----     -----  ------   -----

   1*** dc breakdown parameters ***
       vb=   0.    volts        ibv=   1.00m amps   

   2*** parasitic resistance parameters ***
       rs=   0.    ohms   

   3*** capacitance parameters ***
       fc= 500.00m              fcs= 500.00m                m= 500.00m        
     mjsw= 330.00m               pb= 800.00m volts        php= 800.00m volts  
       tt=   0.    secs         cjo=   0.    f/area       cjp=   0.    f/pj   

   4*** temperature effect parameters ***
     tlev=   0.               tlevc=   0.                 tcv=   0.    v/deg k
      trs=   0.    /deg         cta=   0.    /deg         ctp=   0.    /deg   
      xti=   3.00            xtitun=   3.00               keg=   1.00         
       eg=   1.11  ev          gap1= 702.00u  ev/deg     gap2=   1.11k  deg   
     ttt1=   0.    /deg        ttt2=   0.    /deg2        tm1=   0.    /deg   
      tm2=   0.    /deg2        tpb=   0.    v/deg k     tphp=   0.    v/deg k
     tref=  25.00   deg c 

   5*** noise parameters ***
       kf=   0.                  af=   1.00         

   ***  level   1  model parameters  ***

    level=   1.00                is=   1.00u amps         jsw=   0.    amps   
        n=  15.00               nbv=  15.00                ik=   0.    amp    
     area=   1.00                pj=   0.                 ikr=   0.    amp    
    expli=   0.    amps      explir=   0.    amps        jtun=   0.    amps   
   jtunsw=   0.    amps        ntun=  30.00         
  
 ********************************************************
 *** common model parameters model name:   0:diode_bp****
 ********************************************************

     names  values   units     names  values   units     names  values   units
     -----  ------   -----     -----  ------   -----     -----  ------   -----

   1*** dc breakdown parameters ***
       vb=   0.    volts        ibv=   1.00m amps   

   2*** parasitic resistance parameters ***
       rs=   0.    ohms   

   3*** capacitance parameters ***
       fc= 500.00m              fcs= 500.00m                m= 500.00m        
     mjsw= 330.00m               pb= 800.00m volts        php= 800.00m volts  
       tt=   0.    secs         cjo=   0.    f/area       cjp=   0.    f/pj   

   4*** temperature effect parameters ***
     tlev=   0.               tlevc=   0.                 tcv=   0.    v/deg k
      trs=   0.    /deg         cta=   0.    /deg         ctp=   0.    /deg   
      xti=   3.00            xtitun=   3.00               keg=   1.00         
       eg=   1.11  ev          gap1= 702.00u  ev/deg     gap2=   1.11k  deg   
     ttt1=   0.    /deg        ttt2=   0.    /deg2        tm1=   0.    /deg   
      tm2=   0.    /deg2        tpb=   0.    v/deg k     tphp=   0.    v/deg k
     tref=  25.00   deg c 

   5*** noise parameters ***
       kf=   0.                  af=   1.00         

   ***  level   1  model parameters  ***

    level=   1.00                is=  10.00u amps         jsw=   0.    amps   
        n=   1.00               nbv=   1.00                ik=   0.    amp    
     area=   1.00                pj=   0.                 ikr=   0.    amp    
    expli=   0.    amps      explir=   0.    amps        jtun=   0.    amps   
   jtunsw=   0.    amps        ntun=  30.00         
  
 ********************************************************
 *** common model parameters model name:   0:diode112****
 ********************************************************

     names  values   units     names  values   units     names  values   units
     -----  ------   -----     -----  ------   -----     -----  ------   -----

   1*** dc breakdown parameters ***
       vb=   0.    volts        ibv=   1.00m amps   

   2*** parasitic resistance parameters ***
       rs=   0.    ohms   

   3*** capacitance parameters ***
       fc= 500.00m              fcs= 500.00m                m= 500.00m        
     mjsw= 330.00m               pb= 800.00m volts        php= 800.00m volts  
       tt=   0.    secs         cjo=   0.    f/area       cjp=   0.    f/pj   

   4*** temperature effect parameters ***
     tlev=   0.               tlevc=   0.                 tcv=   0.    v/deg k
      trs=   0.    /deg         cta=   0.    /deg         ctp=   0.    /deg   
      xti=   3.00            xtitun=   3.00               keg=   1.00         
       eg=   1.11  ev          gap1= 702.00u  ev/deg     gap2=   1.11k  deg   
     ttt1=   0.    /deg        ttt2=   0.    /deg2        tm1=   0.    /deg   
      tm2=   0.    /deg2        tpb=   0.    v/deg k     tphp=   0.    v/deg k
     tref=  25.00   deg c 

   5*** noise parameters ***
       kf=   0.                  af=   1.00         

   ***  level   1  model parameters  ***

    level=   1.00                is=   1.00u amps         jsw=   0.    amps   
        n=  30.00               nbv=  30.00                ik=   0.    amp    
     area=   1.00                pj=   0.                 ikr=   0.    amp    
    expli=   0.    amps      explir=   0.    amps        jtun=   0.    amps   
   jtunsw=   0.    amps        ntun=  30.00         
  
 ********************************************************
 *** common model parameters model name:   0:diode_bp****
 ********************************************************

     names  values   units     names  values   units     names  values   units
     -----  ------   -----     -----  ------   -----     -----  ------   -----

   1*** dc breakdown parameters ***
       vb=   0.    volts        ibv=   1.00m amps   

   2*** parasitic resistance parameters ***
       rs=   0.    ohms   

   3*** capacitance parameters ***
       fc= 500.00m              fcs= 500.00m                m= 500.00m        
     mjsw= 330.00m               pb= 800.00m volts        php= 800.00m volts  
       tt=   0.    secs         cjo=   0.    f/area       cjp=   0.    f/pj   

   4*** temperature effect parameters ***
     tlev=   0.               tlevc=   0.                 tcv=   0.    v/deg k
      trs=   0.    /deg         cta=   0.    /deg         ctp=   0.    /deg   
      xti=   3.00            xtitun=   3.00               keg=   1.00         
       eg=   1.11  ev          gap1= 702.00u  ev/deg     gap2=   1.11k  deg   
     ttt1=   0.    /deg        ttt2=   0.    /deg2        tm1=   0.    /deg   
      tm2=   0.    /deg2        tpb=   0.    v/deg k     tphp=   0.    v/deg k
     tref=  25.00   deg c 

   5*** noise parameters ***
       kf=   0.                  af=   1.00         

   ***  level   1  model parameters  ***

    level=   1.00                is=  10.00u amps         jsw=   0.    amps   
        n=   1.00               nbv=   1.00                ik=   0.    amp    
     area=   1.00                pj=   0.                 ikr=   0.    amp    
    expli=   0.    amps      explir=   0.    amps        jtun=   0.    amps   
   jtunsw=   0.    amps        ntun=  30.00         
  
 ********************************************************
 *** common model parameters model name:   0:diode213****
 ********************************************************

     names  values   units     names  values   units     names  values   units
     -----  ------   -----     -----  ------   -----     -----  ------   -----

   1*** dc breakdown parameters ***
       vb=   0.    volts        ibv=   1.00m amps   

   2*** parasitic resistance parameters ***
       rs=   0.    ohms   

   3*** capacitance parameters ***
       fc= 500.00m              fcs= 500.00m                m= 500.00m        
     mjsw= 330.00m               pb= 800.00m volts        php= 800.00m volts  
       tt=   0.    secs         cjo=   0.    f/area       cjp=   0.    f/pj   

   4*** temperature effect parameters ***
     tlev=   0.               tlevc=   0.                 tcv=   0.    v/deg k
      trs=   0.    /deg         cta=   0.    /deg         ctp=   0.    /deg   
      xti=   3.00            xtitun=   3.00               keg=   1.00         
       eg=   1.11  ev          gap1= 702.00u  ev/deg     gap2=   1.11k  deg   
     ttt1=   0.    /deg        ttt2=   0.    /deg2        tm1=   0.    /deg   
      tm2=   0.    /deg2        tpb=   0.    v/deg k     tphp=   0.    v/deg k
     tref=  25.00   deg c 

   5*** noise parameters ***
       kf=   0.                  af=   1.00         

   ***  level   1  model parameters  ***

    level=   1.00                is=   1.00u amps         jsw=   0.    amps   
        n=  30.00               nbv=  30.00                ik=   0.    amp    
     area=   1.00                pj=   0.                 ikr=   0.    amp    
    expli=   0.    amps      explir=   0.    amps        jtun=   0.    amps   
   jtunsw=   0.    amps        ntun=  30.00         
  
 ********************************************************
 *** common model parameters model name:   0:diode_bp****
 ********************************************************

     names  values   units     names  values   units     names  values   units
     -----  ------   -----     -----  ------   -----     -----  ------   -----

   1*** dc breakdown parameters ***
       vb=   0.    volts        ibv=   1.00m amps   

   2*** parasitic resistance parameters ***
       rs=   0.    ohms   

   3*** capacitance parameters ***
       fc= 500.00m              fcs= 500.00m                m= 500.00m        
     mjsw= 330.00m               pb= 800.00m volts        php= 800.00m volts  
       tt=   0.    secs         cjo=   0.    f/area       cjp=   0.    f/pj   

   4*** temperature effect parameters ***
     tlev=   0.               tlevc=   0.                 tcv=   0.    v/deg k
      trs=   0.    /deg         cta=   0.    /deg         ctp=   0.    /deg   
      xti=   3.00            xtitun=   3.00               keg=   1.00         
       eg=   1.11  ev          gap1= 702.00u  ev/deg     gap2=   1.11k  deg   
     ttt1=   0.    /deg        ttt2=   0.    /deg2        tm1=   0.    /deg   
      tm2=   0.    /deg2        tpb=   0.    v/deg k     tphp=   0.    v/deg k
     tref=  25.00   deg c 

   5*** noise parameters ***
       kf=   0.                  af=   1.00         

   ***  level   1  model parameters  ***

    level=   1.00                is=  10.00u amps         jsw=   0.    amps   
        n=   1.00               nbv=   1.00                ik=   0.    amp    
     area=   1.00                pj=   0.                 ikr=   0.    amp    
    expli=   0.    amps      explir=   0.    amps        jtun=   0.    amps   
   jtunsw=   0.    amps        ntun=  30.00         
  
 ********************************************************
 *** common model parameters model name:   0:diode112****
 ********************************************************

     names  values   units     names  values   units     names  values   units
     -----  ------   -----     -----  ------   -----     -----  ------   -----

   1*** dc breakdown parameters ***
       vb=   0.    volts        ibv=   1.00m amps   

   2*** parasitic resistance parameters ***
       rs=   0.    ohms   

   3*** capacitance parameters ***
       fc= 500.00m              fcs= 500.00m                m= 500.00m        
     mjsw= 330.00m               pb= 800.00m volts        php= 800.00m volts  
       tt=   0.    secs         cjo=   0.    f/area       cjp=   0.    f/pj   

   4*** temperature effect parameters ***
     tlev=   0.               tlevc=   0.                 tcv=   0.    v/deg k
      trs=   0.    /deg         cta=   0.    /deg         ctp=   0.    /deg   
      xti=   3.00            xtitun=   3.00               keg=   1.00         
       eg=   1.11  ev          gap1= 702.00u  ev/deg     gap2=   1.11k  deg   
     ttt1=   0.    /deg        ttt2=   0.    /deg2        tm1=   0.    /deg   
      tm2=   0.    /deg2        tpb=   0.    v/deg k     tphp=   0.    v/deg k
     tref=  25.00   deg c 

   5*** noise parameters ***
       kf=   0.                  af=   1.00         

   ***  level   1  model parameters  ***

    level=   1.00                is=   1.00u amps         jsw=   0.    amps   
        n=  18.00               nbv=  18.00                ik=   0.    amp    
     area=   1.00                pj=   0.                 ikr=   0.    amp    
    expli=   0.    amps      explir=   0.    amps        jtun=   0.    amps   
   jtunsw=   0.    amps        ntun=  30.00         
  
 ********************************************************
 *** common model parameters model name:   0:diode12_****
 ********************************************************

     names  values   units     names  values   units     names  values   units
     -----  ------   -----     -----  ------   -----     -----  ------   -----

   1*** dc breakdown parameters ***
       vb=   0.    volts        ibv=   1.00m amps   

   2*** parasitic resistance parameters ***
       rs=   0.    ohms   

   3*** capacitance parameters ***
       fc= 500.00m              fcs= 500.00m                m= 500.00m        
     mjsw= 330.00m               pb= 800.00m volts        php= 800.00m volts  
       tt=   0.    secs         cjo=   0.    f/area       cjp=   0.    f/pj   

   4*** temperature effect parameters ***
     tlev=   0.               tlevc=   0.                 tcv=   0.    v/deg k
      trs=   0.    /deg         cta=   0.    /deg         ctp=   0.    /deg   
      xti=   3.00            xtitun=   3.00               keg=   1.00         
       eg=   1.11  ev          gap1= 702.00u  ev/deg     gap2=   1.11k  deg   
     ttt1=   0.    /deg        ttt2=   0.    /deg2        tm1=   0.    /deg   
      tm2=   0.    /deg2        tpb=   0.    v/deg k     tphp=   0.    v/deg k
     tref=  25.00   deg c 

   5*** noise parameters ***
       kf=   0.                  af=   1.00         

   ***  level   1  model parameters  ***

    level=   1.00                is=   1.00u amps         jsw=   0.    amps   
        n=  12.00               nbv=  12.00                ik=   0.    amp    
     area=   1.00                pj=   0.                 ikr=   0.    amp    
    expli=   0.    amps      explir=   0.    amps        jtun=   0.    amps   
   jtunsw=   0.    amps        ntun=  30.00         
  
 ********************************************************
 *** common model parameters model name:   0:diode_bp****
 ********************************************************

     names  values   units     names  values   units     names  values   units
     -----  ------   -----     -----  ------   -----     -----  ------   -----

   1*** dc breakdown parameters ***
       vb=   0.    volts        ibv=   1.00m amps   

   2*** parasitic resistance parameters ***
       rs=   0.    ohms   

   3*** capacitance parameters ***
       fc= 500.00m              fcs= 500.00m                m= 500.00m        
     mjsw= 330.00m               pb= 800.00m volts        php= 800.00m volts  
       tt=   0.    secs         cjo=   0.    f/area       cjp=   0.    f/pj   

   4*** temperature effect parameters ***
     tlev=   0.               tlevc=   0.                 tcv=   0.    v/deg k
      trs=   0.    /deg         cta=   0.    /deg         ctp=   0.    /deg   
      xti=   3.00            xtitun=   3.00               keg=   1.00         
       eg=   1.11  ev          gap1= 702.00u  ev/deg     gap2=   1.11k  deg   
     ttt1=   0.    /deg        ttt2=   0.    /deg2        tm1=   0.    /deg   
      tm2=   0.    /deg2        tpb=   0.    v/deg k     tphp=   0.    v/deg k
     tref=  25.00   deg c 

   5*** noise parameters ***
       kf=   0.                  af=   1.00         

   ***  level   1  model parameters  ***

    level=   1.00                is=  10.00u amps         jsw=   0.    amps   
        n=   1.00               nbv=   1.00                ik=   0.    amp    
     area=   1.00                pj=   0.                 ikr=   0.    amp    
    expli=   0.    amps      explir=   0.    amps        jtun=   0.    amps   
   jtunsw=   0.    amps        ntun=  30.00         
  
 ********************************************************
 *** common model parameters model name:   0:diode122****
 ********************************************************

     names  values   units     names  values   units     names  values   units
     -----  ------   -----     -----  ------   -----     -----  ------   -----

   1*** dc breakdown parameters ***
       vb=   0.    volts        ibv=   1.00m amps   

   2*** parasitic resistance parameters ***
       rs=   0.    ohms   

   3*** capacitance parameters ***
       fc= 500.00m              fcs= 500.00m                m= 500.00m        
     mjsw= 330.00m               pb= 800.00m volts        php= 800.00m volts  
       tt=   0.    secs         cjo=   0.    f/area       cjp=   0.    f/pj   

   4*** temperature effect parameters ***
     tlev=   0.               tlevc=   0.                 tcv=   0.    v/deg k
      trs=   0.    /deg         cta=   0.    /deg         ctp=   0.    /deg   
      xti=   3.00            xtitun=   3.00               keg=   1.00         
       eg=   1.11  ev          gap1= 702.00u  ev/deg     gap2=   1.11k  deg   
     ttt1=   0.    /deg        ttt2=   0.    /deg2        tm1=   0.    /deg   
      tm2=   0.    /deg2        tpb=   0.    v/deg k     tphp=   0.    v/deg k
     tref=  25.00   deg c 

   5*** noise parameters ***
       kf=   0.                  af=   1.00         

   ***  level   1  model parameters  ***

    level=   1.00                is=   1.00u amps         jsw=   0.    amps   
        n=  30.00               nbv=  30.00                ik=   0.    amp    
     area=   1.00                pj=   0.                 ikr=   0.    amp    
    expli=   0.    amps      explir=   0.    amps        jtun=   0.    amps   
   jtunsw=   0.    amps        ntun=  30.00         
  
 ********************************************************
 *** common model parameters model name:   0:diode_bp****
 ********************************************************

     names  values   units     names  values   units     names  values   units
     -----  ------   -----     -----  ------   -----     -----  ------   -----

   1*** dc breakdown parameters ***
       vb=   0.    volts        ibv=   1.00m amps   

   2*** parasitic resistance parameters ***
       rs=   0.    ohms   

   3*** capacitance parameters ***
       fc= 500.00m              fcs= 500.00m                m= 500.00m        
     mjsw= 330.00m               pb= 800.00m volts        php= 800.00m volts  
       tt=   0.    secs         cjo=   0.    f/area       cjp=   0.    f/pj   

   4*** temperature effect parameters ***
     tlev=   0.               tlevc=   0.                 tcv=   0.    v/deg k
      trs=   0.    /deg         cta=   0.    /deg         ctp=   0.    /deg   
      xti=   3.00            xtitun=   3.00               keg=   1.00         
       eg=   1.11  ev          gap1= 702.00u  ev/deg     gap2=   1.11k  deg   
     ttt1=   0.    /deg        ttt2=   0.    /deg2        tm1=   0.    /deg   
      tm2=   0.    /deg2        tpb=   0.    v/deg k     tphp=   0.    v/deg k
     tref=  25.00   deg c 

   5*** noise parameters ***
       kf=   0.                  af=   1.00         

   ***  level   1  model parameters  ***

    level=   1.00                is=  10.00u amps         jsw=   0.    amps   
        n=   1.00               nbv=   1.00                ik=   0.    amp    
     area=   1.00                pj=   0.                 ikr=   0.    amp    
    expli=   0.    amps      explir=   0.    amps        jtun=   0.    amps   
   jtunsw=   0.    amps        ntun=  30.00         
  
 ********************************************************
 *** common model parameters model name:   0:diode223****
 ********************************************************

     names  values   units     names  values   units     names  values   units
     -----  ------   -----     -----  ------   -----     -----  ------   -----

   1*** dc breakdown parameters ***
       vb=   0.    volts        ibv=   1.00m amps   

   2*** parasitic resistance parameters ***
       rs=   0.    ohms   

   3*** capacitance parameters ***
       fc= 500.00m              fcs= 500.00m                m= 500.00m        
     mjsw= 330.00m               pb= 800.00m volts        php= 800.00m volts  
       tt=   0.    secs         cjo=   0.    f/area       cjp=   0.    f/pj   

   4*** temperature effect parameters ***
     tlev=   0.               tlevc=   0.                 tcv=   0.    v/deg k
      trs=   0.    /deg         cta=   0.    /deg         ctp=   0.    /deg   
      xti=   3.00            xtitun=   3.00               keg=   1.00         
       eg=   1.11  ev          gap1= 702.00u  ev/deg     gap2=   1.11k  deg   
     ttt1=   0.    /deg        ttt2=   0.    /deg2        tm1=   0.    /deg   
      tm2=   0.    /deg2        tpb=   0.    v/deg k     tphp=   0.    v/deg k
     tref=  25.00   deg c 

   5*** noise parameters ***
       kf=   0.                  af=   1.00         

   ***  level   1  model parameters  ***

    level=   1.00                is=   1.00u amps         jsw=   0.    amps   
        n=  28.50               nbv=  28.50                ik=   0.    amp    
     area=   1.00                pj=   0.                 ikr=   0.    amp    
    expli=   0.    amps      explir=   0.    amps        jtun=   0.    amps   
   jtunsw=   0.    amps        ntun=  30.00         
  
 ********************************************************
 *** common model parameters model name:   0:diode32_****
 ********************************************************

     names  values   units     names  values   units     names  values   units
     -----  ------   -----     -----  ------   -----     -----  ------   -----

   1*** dc breakdown parameters ***
       vb=   0.    volts        ibv=   1.00m amps   

   2*** parasitic resistance parameters ***
       rs=   0.    ohms   

   3*** capacitance parameters ***
       fc= 500.00m              fcs= 500.00m                m= 500.00m        
     mjsw= 330.00m               pb= 800.00m volts        php= 800.00m volts  
       tt=   0.    secs         cjo=   0.    f/area       cjp=   0.    f/pj   

   4*** temperature effect parameters ***
     tlev=   0.               tlevc=   0.                 tcv=   0.    v/deg k
      trs=   0.    /deg         cta=   0.    /deg         ctp=   0.    /deg   
      xti=   3.00            xtitun=   3.00               keg=   1.00         
       eg=   1.11  ev          gap1= 702.00u  ev/deg     gap2=   1.11k  deg   
     ttt1=   0.    /deg        ttt2=   0.    /deg2        tm1=   0.    /deg   
      tm2=   0.    /deg2        tpb=   0.    v/deg k     tphp=   0.    v/deg k
     tref=  25.00   deg c 

   5*** noise parameters ***
       kf=   0.                  af=   1.00         

   ***  level   1  model parameters  ***

    level=   1.00                is=   1.00u amps         jsw=   0.    amps   
        n=   1.50               nbv=   1.50                ik=   0.    amp    
     area=   1.00                pj=   0.                 ikr=   0.    amp    
    expli=   0.    amps      explir=   0.    amps        jtun=   0.    amps   
   jtunsw=   0.    amps        ntun=  30.00         
  
 ********************************************************
 *** common model parameters model name:   0:diode_bp****
 ********************************************************

     names  values   units     names  values   units     names  values   units
     -----  ------   -----     -----  ------   -----     -----  ------   -----

   1*** dc breakdown parameters ***
       vb=   0.    volts        ibv=   1.00m amps   

   2*** parasitic resistance parameters ***
       rs=   0.    ohms   

   3*** capacitance parameters ***
       fc= 500.00m              fcs= 500.00m                m= 500.00m        
     mjsw= 330.00m               pb= 800.00m volts        php= 800.00m volts  
       tt=   0.    secs         cjo=   0.    f/area       cjp=   0.    f/pj   

   4*** temperature effect parameters ***
     tlev=   0.               tlevc=   0.                 tcv=   0.    v/deg k
      trs=   0.    /deg         cta=   0.    /deg         ctp=   0.    /deg   
      xti=   3.00            xtitun=   3.00               keg=   1.00         
       eg=   1.11  ev          gap1= 702.00u  ev/deg     gap2=   1.11k  deg   
     ttt1=   0.    /deg        ttt2=   0.    /deg2        tm1=   0.    /deg   
      tm2=   0.    /deg2        tpb=   0.    v/deg k     tphp=   0.    v/deg k
     tref=  25.00   deg c 

   5*** noise parameters ***
       kf=   0.                  af=   1.00         

   ***  level   1  model parameters  ***

    level=   1.00                is=  10.00u amps         jsw=   0.    amps   
        n=   1.00               nbv=   1.00                ik=   0.    amp    
     area=   1.00                pj=   0.                 ikr=   0.    amp    
    expli=   0.    amps      explir=   0.    amps        jtun=   0.    amps   
   jtunsw=   0.    amps        ntun=  30.00         
  
  **warning** (C:\Users\Administrator\Desktop\MultiLevel\cw2Model.sp:12) r11_111_2defined in subckt 0                resistance limited to   1.000E-05
 
      
 *****************************************************************
 ******  option summary
 ******
 runlvl  = 3         bypass  = 2         
 ******  
 ** 60 cascaded, 2 paralleled cells

  ******  dc transfer curves tnom=  25.000 temp=  25.000 *****
x

        volt    voltage      current    
                     1           vds    
    0.            0.           7.9996   
    5.00000m      5.0000m      7.9996   
   10.00000m     10.0000m      7.9996   
   15.00000m     15.0000m      7.9996   
   20.00000m     20.0000m      7.9996   
   25.00000m     25.0000m      7.9996   
   30.00000m     30.0000m      7.9996   
   35.00000m     35.0000m      7.9996   
   40.00000m     40.0000m      7.9996   
   45.00000m     45.0000m      7.9996   
   50.00000m     50.0000m      7.9996   
   55.00000m     55.0000m      7.9996   
   60.00000m     60.0000m      7.9995   
   65.00000m     65.0000m      7.9995   
   70.00000m     70.0000m      7.9995   
   75.00000m     75.0000m      7.9995   
   80.00000m     80.0000m      7.9995   
   85.00000m     85.0000m      7.9995   
   90.00000m     90.0000m      7.9995   
   95.00000m     95.0000m      7.9995   
  100.00000m    100.0000m      7.9995   
  105.00000m    105.0000m      7.9995   
  110.00000m    110.0000m      7.9995   
  115.00000m    115.0000m      7.9995   
  120.00000m    120.0000m      7.9995   
  125.00000m    125.0000m      7.9995   
  130.00000m    130.0000m      7.9995   
  135.00000m    135.0000m      7.9995   
  140.00000m    140.0000m      7.9995   
  145.00000m    145.0000m      7.9995   
  150.00000m    150.0000m      7.9995   
  155.00000m    155.0000m      7.9995   
  160.00000m    160.0000m      7.9995   
  165.00000m    165.0000m      7.9995   
  170.00000m    170.0000m      7.9995   
  175.00000m    175.0000m      7.9995   
  180.00000m    180.0000m      7.9995   
  185.00000m    185.0000m      7.9995   
  190.00000m    190.0000m      7.9995   
  195.00000m    195.0000m      7.9995   
  200.00000m    200.0000m      7.9995   
  205.00000m    205.0000m      7.9995   
  210.00000m    210.0000m      7.9995   
  215.00000m    215.0000m      7.9995   
  220.00000m    220.0000m      7.9995   
  225.00000m    225.0000m      7.9995   
  230.00000m    230.0000m      7.9995   
  235.00000m    235.0000m      7.9995   
  240.00000m    240.0000m      7.9995   
  245.00000m    245.0000m      7.9995   
  250.00000m    250.0000m      7.9995   
  255.00000m    255.0000m      7.9995   
  260.00000m    260.0000m      7.9995   
  265.00000m    265.0000m      7.9995   
  270.00000m    270.0000m      7.9995   
  275.00000m    275.0000m      7.9995   
  280.00000m    280.0000m      7.9995   
  285.00000m    285.0000m      7.9995   
  290.00000m    290.0000m      7.9995   
  295.00000m    295.0000m      7.9995   
  300.00000m    300.0000m      7.9995   
  305.00000m    305.0000m      7.9995   
  310.00000m    310.0000m      7.9995   
  315.00000m    315.0000m      7.9995   
  320.00000m    320.0000m      7.9995   
  325.00000m    325.0000m      7.9995   
  330.00000m    330.0000m      7.9995   
  335.00000m    335.0000m      7.9995   
  340.00000m    340.0000m      7.9995   
  345.00000m    345.0000m      7.9995   
  350.00000m    350.0000m      7.9995   
  355.00000m    355.0000m      7.9995   
  360.00000m    360.0000m      7.9995   
  365.00000m    365.0000m      7.9995   
  370.00000m    370.0000m      7.9995   
  375.00000m    375.0000m      7.9995   
  380.00000m    380.0000m      7.9995   
  385.00000m    385.0000m      7.9994   
  390.00000m    390.0000m      7.9994   
  395.00000m    395.0000m      7.9994   
  400.00000m    400.0000m      7.9994   
  405.00000m    405.0000m      7.9994   
  410.00000m    410.0000m      7.9994   
  415.00000m    415.0000m      7.9994   
  420.00000m    420.0000m      7.9994   
  425.00000m    425.0000m      7.9994   
  430.00000m    430.0000m      7.9994   
  435.00000m    435.0000m      7.9994   
  440.00000m    440.0000m      7.9994   
  445.00000m    445.0000m      7.9994   
  450.00000m    450.0000m      7.9994   
  455.00000m    455.0000m      7.9994   
  460.00000m    460.0000m      7.9994   
  465.00000m    465.0000m      7.9994   
  470.00000m    470.0000m      7.9994   
  475.00000m    475.0000m      7.9994   
  480.00000m    480.0000m      7.9994   
  485.00000m    485.0000m      7.9994   
  490.00000m    490.0000m      7.9994   
  495.00000m    495.0000m      7.9994   
  500.00000m    500.0000m      7.9994   
  505.00000m    505.0000m      7.9994   
  510.00000m    510.0000m      7.9994   
  515.00000m    515.0000m      7.9994   
  520.00000m    520.0000m      7.9994   
  525.00000m    525.0000m      7.9994   
  530.00000m    530.0000m      7.9994   
  535.00000m    535.0000m      7.9994   
  540.00000m    540.0000m      7.9994   
  545.00000m    545.0000m      7.9994   
  550.00000m    550.0000m      7.9994   
  555.00000m    555.0000m      7.9994   
  560.00000m    560.0000m      7.9994   
  565.00000m    565.0000m      7.9994   
  570.00000m    570.0000m      7.9994   
  575.00000m    575.0000m      7.9994   
  580.00000m    580.0000m      7.9994   
  585.00000m    585.0000m      7.9994   
  590.00000m    590.0000m      7.9994   
  595.00000m    595.0000m      7.9994   
  600.00000m    600.0000m      7.9994   
  605.00000m    605.0000m      7.9994   
  610.00000m    610.0000m      7.9994   
  615.00000m    615.0000m      7.9994   
  620.00000m    620.0000m      7.9994   
  625.00000m    625.0000m      7.9994   
  630.00000m    630.0000m      7.9994   
  635.00000m    635.0000m      7.9994   
  640.00000m    640.0000m      7.9994   
  645.00000m    645.0000m      7.9994   
  650.00000m    650.0000m      7.9994   
  655.00000m    655.0000m      7.9994   
  660.00000m    660.0000m      7.9994   
  665.00000m    665.0000m      7.9994   
  670.00000m    670.0000m      7.9994   
  675.00000m    675.0000m      7.9994   
  680.00000m    680.0000m      7.9994   
  685.00000m    685.0000m      7.9994   
  690.00000m    690.0000m      7.9994   
  695.00000m    695.0000m      7.9994   
  700.00000m    700.0000m      7.9993   
  705.00000m    705.0000m      7.9993   
  710.00000m    710.0000m      7.9993   
  715.00000m    715.0000m      7.9993   
  720.00000m    720.0000m      7.9993   
  725.00000m    725.0000m      7.9993   
  730.00000m    730.0000m      7.9993   
  735.00000m    735.0000m      7.9993   
  740.00000m    740.0000m      7.9993   
  745.00000m    745.0000m      7.9993   
  750.00000m    750.0000m      7.9993   
  755.00000m    755.0000m      7.9993   
  760.00000m    760.0000m      7.9993   
  765.00000m    765.0000m      7.9993   
  770.00000m    770.0000m      7.9993   
  775.00000m    775.0000m      7.9993   
  780.00000m    780.0000m      7.9993   
  785.00000m    785.0000m      7.9993   
  790.00000m    790.0000m      7.9993   
  795.00000m    795.0000m      7.9993   
  800.00000m    800.0000m      7.9993   
  805.00000m    805.0000m      7.9993   
  810.00000m    810.0000m      7.9993   
  815.00000m    815.0000m      7.9993   
  820.00000m    820.0000m      7.9993   
  825.00000m    825.0000m      7.9993   
  830.00000m    830.0000m      7.9993   
  835.00000m    835.0000m      7.9993   
  840.00000m    840.0000m      7.9993   
  845.00000m    845.0000m      7.9993   
  850.00000m    850.0000m      7.9993   
  855.00000m    855.0000m      7.9993   
  860.00000m    860.0000m      7.9993   
  865.00000m    865.0000m      7.9993   
  870.00000m    870.0000m      7.9993   
  875.00000m    875.0000m      7.9993   
  880.00000m    880.0000m      7.9993   
  885.00000m    885.0000m      7.9993   
  890.00000m    890.0000m      7.9993   
  895.00000m    895.0000m      7.9993   
  900.00000m    900.0000m      7.9993   
  905.00000m    905.0000m      7.9993   
  910.00000m    910.0000m      7.9993   
  915.00000m    915.0000m      7.9993   
  920.00000m    920.0000m      7.9993   
  925.00000m    925.0000m      7.9993   
  930.00000m    930.0000m      7.9993   
  935.00000m    935.0000m      7.9993   
  940.00000m    940.0000m      7.9993   
  945.00000m    945.0000m      7.9993   
  950.00000m    950.0000m      7.9993   
  955.00000m    955.0000m      7.9993   
  960.00000m    960.0000m      7.9993   
  965.00000m    965.0000m      7.9993   
  970.00000m    970.0000m      7.9993   
  975.00000m    975.0000m      7.9993   
  980.00000m    980.0000m      7.9993   
  985.00000m    985.0000m      7.9993   
  990.00000m    990.0000m      7.9993   
  995.00000m    995.0000m      7.9993   
    1.00000       1.0000       7.9993   
    1.00500       1.0050       7.9993   
    1.01000       1.0100       7.9992   
    1.01500       1.0150       7.9992   
    1.02000       1.0200       7.9992   
    1.02500       1.0250       7.9992   
    1.03000       1.0300       7.9992   
    1.03500       1.0350       7.9992   
    1.04000       1.0400       7.9992   
    1.04500       1.0450       7.9992   
    1.05000       1.0500       7.9992   
    1.05500       1.0550       7.9992   
    1.06000       1.0600       7.9992   
    1.06500       1.0650       7.9992   
    1.07000       1.0700       7.9992   
    1.07500       1.0750       7.9992   
    1.08000       1.0800       7.9992   
    1.08500       1.0850       7.9992   
    1.09000       1.0900       7.9992   
    1.09500       1.0950       7.9992   
    1.10000       1.1000       7.9992   
    1.10500       1.1050       7.9992   
    1.11000       1.1100       7.9992   
    1.11500       1.1150       7.9992   
    1.12000       1.1200       7.9992   
    1.12500       1.1250       7.9992   
    1.13000       1.1300       7.9992   
    1.13500       1.1350       7.9992   
    1.14000       1.1400       7.9992   
    1.14500       1.1450       7.9992   
    1.15000       1.1500       7.9992   
    1.15500       1.1550       7.9992   
    1.16000       1.1600       7.9992   
    1.16500       1.1650       7.9992   
    1.17000       1.1700       7.9992   
    1.17500       1.1750       7.9992   
    1.18000       1.1800       7.9992   
    1.18500       1.1850       7.9992   
    1.19000       1.1900       7.9992   
    1.19500       1.1950       7.9992   
    1.20000       1.2000       7.9992   
    1.20500       1.2050       7.9992   
    1.21000       1.2100       7.9992   
    1.21500       1.2150       7.9992   
    1.22000       1.2200       7.9992   
    1.22500       1.2250       7.9992   
    1.23000       1.2300       7.9992   
    1.23500       1.2350       7.9992   
    1.24000       1.2400       7.9992   
    1.24500       1.2450       7.9992   
    1.25000       1.2500       7.9992   
    1.25500       1.2550       7.9992   
    1.26000       1.2600       7.9992   
    1.26500       1.2650       7.9992   
    1.27000       1.2700       7.9992   
    1.27500       1.2750       7.9992   
    1.28000       1.2800       7.9992   
    1.28500       1.2850       7.9992   
    1.29000       1.2900       7.9992   
    1.29500       1.2950       7.9992   
    1.30000       1.3000       7.9992   
    1.30500       1.3050       7.9992   
    1.31000       1.3100       7.9991   
    1.31500       1.3150       7.9991   
    1.32000       1.3200       7.9991   
    1.32500       1.3250       7.9991   
    1.33000       1.3300       7.9991   
    1.33500       1.3350       7.9991   
    1.34000       1.3400       7.9991   
    1.34500       1.3450       7.9991   
    1.35000       1.3500       7.9991   
    1.35500       1.3550       7.9991   
    1.36000       1.3600       7.9991   
    1.36500       1.3650       7.9991   
    1.37000       1.3700       7.9991   
    1.37500       1.3750       7.9991   
    1.38000       1.3800       7.9991   
    1.38500       1.3850       7.9991   
    1.39000       1.3900       7.9991   
    1.39500       1.3950       7.9991   
    1.40000       1.4000       7.9991   
    1.40500       1.4050       7.9991   
    1.41000       1.4100       7.9991   
    1.41500       1.4150       7.9991   
    1.42000       1.4200       7.9991   
    1.42500       1.4250       7.9991   
    1.43000       1.4300       7.9991   
    1.43500       1.4350       7.9991   
    1.44000       1.4400       7.9991   
    1.44500       1.4450       7.9991   
    1.45000       1.4500       7.9991   
    1.45500       1.4550       7.9991   
    1.46000       1.4600       7.9991   
    1.46500       1.4650       7.9991   
    1.47000       1.4700       7.9991   
    1.47500       1.4750       7.9991   
    1.48000       1.4800       7.9991   
    1.48500       1.4850       7.9991   
    1.49000       1.4900       7.9991   
    1.49500       1.4950       7.9991   
    1.50000       1.5000       7.9991   
    1.50500       1.5050       7.9991   
    1.51000       1.5100       7.9991   
    1.51500       1.5150       7.9991   
    1.52000       1.5200       7.9991   
    1.52500       1.5250       7.9991   
    1.53000       1.5300       7.9991   
    1.53500       1.5350       7.9991   
    1.54000       1.5400       7.9991   
    1.54500       1.5450       7.9991   
    1.55000       1.5500       7.9991   
    1.55500       1.5550       7.9991   
    1.56000       1.5600       7.9991   
    1.56500       1.5650       7.9991   
    1.57000       1.5700       7.9991   
    1.57500       1.5750       7.9991   
    1.58000       1.5800       7.9991   
    1.58500       1.5850       7.9991   
    1.59000       1.5900       7.9991   
    1.59500       1.5950       7.9990   
    1.60000       1.6000       7.9990   
    1.60500       1.6050       7.9990   
    1.61000       1.6100       7.9990   
    1.61500       1.6150       7.9990   
    1.62000       1.6200       7.9990   
    1.62500       1.6250       7.9990   
    1.63000       1.6300       7.9990   
    1.63500       1.6350       7.9990   
    1.64000       1.6400       7.9990   
    1.64500       1.6450       7.9990   
    1.65000       1.6500       7.9990   
    1.65500       1.6550       7.9990   
    1.66000       1.6600       7.9990   
    1.66500       1.6650       7.9990   
    1.67000       1.6700       7.9990   
    1.67500       1.6750       7.9990   
    1.68000       1.6800       7.9990   
    1.68500       1.6850       7.9990   
    1.69000       1.6900       7.9990   
    1.69500       1.6950       7.9990   
    1.70000       1.7000       7.9990   
    1.70500       1.7050       7.9990   
    1.71000       1.7100       7.9990   
    1.71500       1.7150       7.9990   
    1.72000       1.7200       7.9990   
    1.72500       1.7250       7.9990   
    1.73000       1.7300       7.9990   
    1.73500       1.7350       7.9990   
    1.74000       1.7400       7.9990   
    1.74500       1.7450       7.9990   
    1.75000       1.7500       7.9990   
    1.75500       1.7550       7.9990   
    1.76000       1.7600       7.9990   
    1.76500       1.7650       7.9990   
    1.77000       1.7700       7.9990   
    1.77500       1.7750       7.9990   
    1.78000       1.7800       7.9990   
    1.78500       1.7850       7.9990   
    1.79000       1.7900       7.9990   
    1.79500       1.7950       7.9990   
    1.80000       1.8000       7.9990   
    1.80500       1.8050       7.9990   
    1.81000       1.8100       7.9990   
    1.81500       1.8150       7.9990   
    1.82000       1.8200       7.9990   
    1.82500       1.8250       7.9990   
    1.83000       1.8300       7.9990   
    1.83500       1.8350       7.9990   
    1.84000       1.8400       7.9990   
    1.84500       1.8450       7.9990   
    1.85000       1.8500       7.9990   
    1.85500       1.8550       7.9990   
    1.86000       1.8600       7.9990   
    1.86500       1.8650       7.9990   
    1.87000       1.8700       7.9989   
    1.87500       1.8750       7.9989   
    1.88000       1.8800       7.9989   
    1.88500       1.8850       7.9989   
    1.89000       1.8900       7.9989   
    1.89500       1.8950       7.9989   
    1.90000       1.9000       7.9989   
    1.90500       1.9050       7.9989   
    1.91000       1.9100       7.9989   
    1.91500       1.9150       7.9989   
    1.92000       1.9200       7.9989   
    1.92500       1.9250       7.9989   
    1.93000       1.9300       7.9989   
    1.93500       1.9350       7.9989   
    1.94000       1.9400       7.9989   
    1.94500       1.9450       7.9989   
    1.95000       1.9500       7.9989   
    1.95500       1.9550       7.9989   
    1.96000       1.9600       7.9989   
    1.96500       1.9650       7.9989   
    1.97000       1.9700       7.9989   
    1.97500       1.9750       7.9989   
    1.98000       1.9800       7.9989   
    1.98500       1.9850       7.9989   
    1.99000       1.9900       7.9989   
    1.99500       1.9950       7.9989   
    2.00000       2.0000       7.9989   
    2.00500       2.0050       7.9989   
    2.01000       2.0100       7.9989   
    2.01500       2.0150       7.9989   
    2.02000       2.0200       7.9989   
    2.02500       2.0250       7.9989   
    2.03000       2.0300       7.9989   
    2.03500       2.0350       7.9989   
    2.04000       2.0400       7.9989   
    2.04500       2.0450       7.9989   
    2.05000       2.0500       7.9989   
    2.05500       2.0550       7.9989   
    2.06000       2.0600       7.9989   
    2.06500       2.0650       7.9989   
    2.07000       2.0700       7.9989   
    2.07500       2.0750       7.9989   
    2.08000       2.0800       7.9989   
    2.08500       2.0850       7.9989   
    2.09000       2.0900       7.9989   
    2.09500       2.0950       7.9989   
    2.10000       2.1000       7.9989   
    2.10500       2.1050       7.9989   
    2.11000       2.1100       7.9989   
    2.11500       2.1150       7.9989   
    2.12000       2.1200       7.9989   
    2.12500       2.1250       7.9988   
    2.13000       2.1300       7.9988   
    2.13500       2.1350       7.9988   
    2.14000       2.1400       7.9988   
    2.14500       2.1450       7.9988   
    2.15000       2.1500       7.9988   
    2.15500       2.1550       7.9988   
    2.16000       2.1600       7.9988   
    2.16500       2.1650       7.9988   
    2.17000       2.1700       7.9988   
    2.17500       2.1750       7.9988   
    2.18000       2.1800       7.9988   
    2.18500       2.1850       7.9988   
    2.19000       2.1900       7.9988   
    2.19500       2.1950       7.9988   
    2.20000       2.2000       7.9988   
    2.20500       2.2050       7.9988   
    2.21000       2.2100       7.9988   
    2.21500       2.2150       7.9988   
    2.22000       2.2200       7.9988   
    2.22500       2.2250       7.9988   
    2.23000       2.2300       7.9988   
    2.23500       2.2350       7.9988   
    2.24000       2.2400       7.9988   
    2.24500       2.2450       7.9988   
    2.25000       2.2500       7.9988   
    2.25500       2.2550       7.9988   
    2.26000       2.2600       7.9988   
    2.26500       2.2650       7.9988   
    2.27000       2.2700       7.9988   
    2.27500       2.2750       7.9988   
    2.28000       2.2800       7.9988   
    2.28500       2.2850       7.9988   
    2.29000       2.2900       7.9988   
    2.29500       2.2950       7.9988   
    2.30000       2.3000       7.9988   
    2.30500       2.3050       7.9988   
    2.31000       2.3100       7.9988   
    2.31500       2.3150       7.9988   
    2.32000       2.3200       7.9988   
    2.32500       2.3250       7.9988   
    2.33000       2.3300       7.9988   
    2.33500       2.3350       7.9988   
    2.34000       2.3400       7.9988   
    2.34500       2.3450       7.9988   
    2.35000       2.3500       7.9988   
    2.35500       2.3550       7.9988   
    2.36000       2.3600       7.9987   
    2.36500       2.3650       7.9987   
    2.37000       2.3700       7.9987   
    2.37500       2.3750       7.9987   
    2.38000       2.3800       7.9987   
    2.38500       2.3850       7.9987   
    2.39000       2.3900       7.9987   
    2.39500       2.3950       7.9987   
    2.40000       2.4000       7.9987   
    2.40500       2.4050       7.9987   
    2.41000       2.4100       7.9987   
    2.41500       2.4150       7.9987   
    2.42000       2.4200       7.9987   
    2.42500       2.4250       7.9987   
    2.43000       2.4300       7.9987   
    2.43500       2.4350       7.9987   
    2.44000       2.4400       7.9987   
    2.44500       2.4450       7.9987   
    2.45000       2.4500       7.9987   
    2.45500       2.4550       7.9987   
    2.46000       2.4600       7.9987   
    2.46500       2.4650       7.9987   
    2.47000       2.4700       7.9987   
    2.47500       2.4750       7.9987   
    2.48000       2.4800       7.9987   
    2.48500       2.4850       7.9987   
    2.49000       2.4900       7.9987   
    2.49500       2.4950       7.9987   
    2.50000       2.5000       7.9987   
    2.50500       2.5050       7.9987   
    2.51000       2.5100       7.9987   
    2.51500       2.5150       7.9987   
    2.52000       2.5200       7.9987   
    2.52500       2.5250       7.9987   
    2.53000       2.5300       7.9987   
    2.53500       2.5350       7.9987   
    2.54000       2.5400       7.9987   
    2.54500       2.5450       7.9987   
    2.55000       2.5500       7.9987   
    2.55500       2.5550       7.9987   
    2.56000       2.5600       7.9987   
    2.56500       2.5650       7.9987   
    2.57000       2.5700       7.9986   
    2.57500       2.5750       7.9986   
    2.58000       2.5800       7.9986   
    2.58500       2.5850       7.9986   
    2.59000       2.5900       7.9986   
    2.59500       2.5950       7.9986   
    2.60000       2.6000       7.9986   
    2.60500       2.6050       7.9986   
    2.61000       2.6100       7.9986   
    2.61500       2.6150       7.9986   
    2.62000       2.6200       7.9986   
    2.62500       2.6250       7.9986   
    2.63000       2.6300       7.9986   
    2.63500       2.6350       7.9986   
    2.64000       2.6400       7.9986   
    2.64500       2.6450       7.9986   
    2.65000       2.6500       7.9986   
    2.65500       2.6550       7.9986   
    2.66000       2.6600       7.9986   
    2.66500       2.6650       7.9986   
    2.67000       2.6700       7.9986   
    2.67500       2.6750       7.9986   
    2.68000       2.6800       7.9986   
    2.68500       2.6850       7.9986   
    2.69000       2.6900       7.9986   
    2.69500       2.6950       7.9986   
    2.70000       2.7000       7.9986   
    2.70500       2.7050       7.9986   
    2.71000       2.7100       7.9986   
    2.71500       2.7150       7.9986   
    2.72000       2.7200       7.9986   
    2.72500       2.7250       7.9986   
    2.73000       2.7300       7.9986   
    2.73500       2.7350       7.9986   
    2.74000       2.7400       7.9986   
    2.74500       2.7450       7.9986   
    2.75000       2.7500       7.9986   
    2.75500       2.7550       7.9986   
    2.76000       2.7600       7.9986   
    2.76500       2.7650       7.9985   
    2.77000       2.7700       7.9985   
    2.77500       2.7750       7.9985   
    2.78000       2.7800       7.9985   
    2.78500       2.7850       7.9985   
    2.79000       2.7900       7.9985   
    2.79500       2.7950       7.9985   
    2.80000       2.8000       7.9985   
    2.80500       2.8050       7.9985   
    2.81000       2.8100       7.9985   
    2.81500       2.8150       7.9985   
    2.82000       2.8200       7.9985   
    2.82500       2.8250       7.9985   
    2.83000       2.8300       7.9985   
    2.83500       2.8350       7.9985   
    2.84000       2.8400       7.9985   
    2.84500       2.8450       7.9985   
    2.85000       2.8500       7.9985   
    2.85500       2.8550       7.9985   
    2.86000       2.8600       7.9985   
    2.86500       2.8650       7.9985   
    2.87000       2.8700       7.9985   
    2.87500       2.8750       7.9985   
    2.88000       2.8800       7.9985   
    2.88500       2.8850       7.9985   
    2.89000       2.8900       7.9985   
    2.89500       2.8950       7.9985   
    2.90000       2.9000       7.9985   
    2.90500       2.9050       7.9985   
    2.91000       2.9100       7.9985   
    2.91500       2.9150       7.9985   
    2.92000       2.9200       7.9985   
    2.92500       2.9250       7.9985   
    2.93000       2.9300       7.9985   
    2.93500       2.9350       7.9985   
    2.94000       2.9400       7.9984   
    2.94500       2.9450       7.9984   
    2.95000       2.9500       7.9984   
    2.95500       2.9550       7.9984   
    2.96000       2.9600       7.9984   
    2.96500       2.9650       7.9984   
    2.97000       2.9700       7.9984   
    2.97500       2.9750       7.9984   
    2.98000       2.9800       7.9984   
    2.98500       2.9850       7.9984   
    2.99000       2.9900       7.9984   
    2.99500       2.9950       7.9984   
    3.00000       3.0000       7.9984   
    3.00500       3.0050       7.9984   
    3.01000       3.0100       7.9984   
    3.01500       3.0150       7.9984   
    3.02000       3.0200       7.9984   
    3.02500       3.0250       7.9984   
    3.03000       3.0300       7.9984   
    3.03500       3.0350       7.9984   
    3.04000       3.0400       7.9984   
    3.04500       3.0450       7.9984   
    3.05000       3.0500       7.9984   
    3.05500       3.0550       7.9984   
    3.06000       3.0600       7.9984   
    3.06500       3.0650       7.9984   
    3.07000       3.0700       7.9984   
    3.07500       3.0750       7.9984   
    3.08000       3.0800       7.9984   
    3.08500       3.0850       7.9984   
    3.09000       3.0900       7.9984   
    3.09500       3.0950       7.9983   
    3.10000       3.1000       7.9983   
    3.10500       3.1050       7.9983   
    3.11000       3.1100       7.9983   
    3.11500       3.1150       7.9983   
    3.12000       3.1200       7.9983   
    3.12500       3.1250       7.9983   
    3.13000       3.1300       7.9983   
    3.13500       3.1350       7.9983   
    3.14000       3.1400       7.9983   
    3.14500       3.1450       7.9983   
    3.15000       3.1500       7.9983   
    3.15500       3.1550       7.9983   
    3.16000       3.1600       7.9983   
    3.16500       3.1650       7.9983   
    3.17000       3.1700       7.9983   
    3.17500       3.1750       7.9983   
    3.18000       3.1800       7.9983   
    3.18500       3.1850       7.9983   
    3.19000       3.1900       7.9983   
    3.19500       3.1950       7.9983   
    3.20000       3.2000       7.9983   
    3.20500       3.2050       7.9983   
    3.21000       3.2100       7.9983   
    3.21500       3.2150       7.9983   
    3.22000       3.2200       7.9983   
    3.22500       3.2250       7.9983   
    3.23000       3.2300       7.9983   
    3.23500       3.2350       7.9982   
    3.24000       3.2400       7.9982   
    3.24500       3.2450       7.9982   
    3.25000       3.2500       7.9982   
    3.25500       3.2550       7.9982   
    3.26000       3.2600       7.9982   
    3.26500       3.2650       7.9982   
    3.27000       3.2700       7.9982   
    3.27500       3.2750       7.9982   
    3.28000       3.2800       7.9982   
    3.28500       3.2850       7.9982   
    3.29000       3.2900       7.9982   
    3.29500       3.2950       7.9982   
    3.30000       3.3000       7.9982   
    3.30500       3.3050       7.9982   
    3.31000       3.3100       7.9982   
    3.31500       3.3150       7.9982   
    3.32000       3.3200       7.9982   
    3.32500       3.3250       7.9982   
    3.33000       3.3300       7.9982   
    3.33500       3.3350       7.9982   
    3.34000       3.3400       7.9982   
    3.34500       3.3450       7.9982   
    3.35000       3.3500       7.9982   
    3.35500       3.3550       7.9982   
    3.36000       3.3600       7.9982   
    3.36500       3.3650       7.9981   
    3.37000       3.3700       7.9981   
    3.37500       3.3750       7.9981   
    3.38000       3.3800       7.9981   
    3.38500       3.3850       7.9981   
    3.39000       3.3900       7.9981   
    3.39500       3.3950       7.9981   
    3.40000       3.4000       7.9981   
    3.40500       3.4050       7.9981   
    3.41000       3.4100       7.9981   
    3.41500       3.4150       7.9981   
    3.42000       3.4200       7.9981   
    3.42500       3.4250       7.9981   
    3.43000       3.4300       7.9981   
    3.43500       3.4350       7.9981   
    3.44000       3.4400       7.9981   
    3.44500       3.4450       7.9981   
    3.45000       3.4500       7.9981   
    3.45500       3.4550       7.9981   
    3.46000       3.4600       7.9981   
    3.46500       3.4650       7.9981   
    3.47000       3.4700       7.9981   
    3.47500       3.4750       7.9981   
    3.48000       3.4800       7.9980   
    3.48500       3.4850       7.9980   
    3.49000       3.4900       7.9980   
    3.49500       3.4950       7.9980   
    3.50000       3.5000       7.9980   
    3.50500       3.5050       7.9980   
    3.51000       3.5100       7.9980   
    3.51500       3.5150       7.9980   
    3.52000       3.5200       7.9980   
    3.52500       3.5250       7.9980   
    3.53000       3.5300       7.9980   
    3.53500       3.5350       7.9980   
    3.54000       3.5400       7.9980   
    3.54500       3.5450       7.9980   
    3.55000       3.5500       7.9980   
    3.55500       3.5550       7.9980   
    3.56000       3.5600       7.9980   
    3.56500       3.5650       7.9980   
    3.57000       3.5700       7.9980   
    3.57500       3.5750       7.9980   
    3.58000       3.5800       7.9980   
    3.58500       3.5850       7.9979   
    3.59000       3.5900       7.9979   
    3.59500       3.5950       7.9979   
    3.60000       3.6000       7.9979   
    3.60500       3.6050       7.9979   
    3.61000       3.6100       7.9979   
    3.61500       3.6150       7.9979   
    3.62000       3.6200       7.9979   
    3.62500       3.6250       7.9979   
    3.63000       3.6300       7.9979   
    3.63500       3.6350       7.9979   
    3.64000       3.6400       7.9979   
    3.64500       3.6450       7.9979   
    3.65000       3.6500       7.9979   
    3.65500       3.6550       7.9979   
    3.66000       3.6600       7.9979   
    3.66500       3.6650       7.9979   
    3.67000       3.6700       7.9979   
    3.67500       3.6750       7.9979   
    3.68000       3.6800       7.9978   
    3.68500       3.6850       7.9978   
    3.69000       3.6900       7.9978   
    3.69500       3.6950       7.9978   
    3.70000       3.7000       7.9978   
    3.70500       3.7050       7.9978   
    3.71000       3.7100       7.9978   
    3.71500       3.7150       7.9978   
    3.72000       3.7200       7.9978   
    3.72500       3.7250       7.9978   
    3.73000       3.7300       7.9978   
    3.73500       3.7350       7.9978   
    3.74000       3.7400       7.9978   
    3.74500       3.7450       7.9978   
    3.75000       3.7500       7.9978   
    3.75500       3.7550       7.9978   
    3.76000       3.7600       7.9978   
    3.76500       3.7650       7.9978   
    3.77000       3.7700       7.9977   
    3.77500       3.7750       7.9977   
    3.78000       3.7800       7.9977   
    3.78500       3.7850       7.9977   
    3.79000       3.7900       7.9977   
    3.79500       3.7950       7.9977   
    3.80000       3.8000       7.9977   
    3.80500       3.8050       7.9977   
    3.81000       3.8100       7.9977   
    3.81500       3.8150       7.9977   
    3.82000       3.8200       7.9977   
    3.82500       3.8250       7.9977   
    3.83000       3.8300       7.9977   
    3.83500       3.8350       7.9977   
    3.84000       3.8400       7.9977   
    3.84500       3.8450       7.9977   
    3.85000       3.8500       7.9976   
    3.85500       3.8550       7.9976   
    3.86000       3.8600       7.9976   
    3.86500       3.8650       7.9976   
    3.87000       3.8700       7.9976   
    3.87500       3.8750       7.9976   
    3.88000       3.8800       7.9976   
    3.88500       3.8850       7.9976   
    3.89000       3.8900       7.9976   
    3.89500       3.8950       7.9976   
    3.90000       3.9000       7.9976   
    3.90500       3.9050       7.9976   
    3.91000       3.9100       7.9976   
    3.91500       3.9150       7.9976   
    3.92000       3.9200       7.9976   
    3.92500       3.9250       7.9975   
    3.93000       3.9300       7.9975   
    3.93500       3.9350       7.9975   
    3.94000       3.9400       7.9975   
    3.94500       3.9450       7.9975   
    3.95000       3.9500       7.9975   
    3.95500       3.9550       7.9975   
    3.96000       3.9600       7.9975   
    3.96500       3.9650       7.9975   
    3.97000       3.9700       7.9975   
    3.97500       3.9750       7.9975   
    3.98000       3.9800       7.9975   
    3.98500       3.9850       7.9975   
    3.99000       3.9900       7.9975   
    3.99500       3.9950       7.9974   
    4.00000       4.0000       7.9974   
    4.00500       4.0050       7.9974   
    4.01000       4.0100       7.9974   
    4.01500       4.0150       7.9974   
    4.02000       4.0200       7.9974   
    4.02500       4.0250       7.9974   
    4.03000       4.0300       7.9974   
    4.03500       4.0350       7.9974   
    4.04000       4.0400       7.9974   
    4.04500       4.0450       7.9974   
    4.05000       4.0500       7.9974   
    4.05500       4.0550       7.9974   
    4.06000       4.0600       7.9973   
    4.06500       4.0650       7.9973   
    4.07000       4.0700       7.9973   
    4.07500       4.0750       7.9973   
    4.08000       4.0800       7.9973   
    4.08500       4.0850       7.9973   
    4.09000       4.0900       7.9973   
    4.09500       4.0950       7.9973   
    4.10000       4.1000       7.9973   
    4.10500       4.1050       7.9973   
    4.11000       4.1100       7.9973   
    4.11500       4.1150       7.9973   
    4.12000       4.1200       7.9973   
    4.12500       4.1250       7.9972   
    4.13000       4.1300       7.9972   
    4.13500       4.1350       7.9972   
    4.14000       4.1400       7.9972   
    4.14500       4.1450       7.9972   
    4.15000       4.1500       7.9972   
    4.15500       4.1550       7.9972   
    4.16000       4.1600       7.9972   
    4.16500       4.1650       7.9972   
    4.17000       4.1700       7.9972   
    4.17500       4.1750       7.9972   
    4.18000       4.1800       7.9971   
    4.18500       4.1850       7.9971   
    4.19000       4.1900       7.9971   
    4.19500       4.1950       7.9971   
    4.20000       4.2000       7.9971   
    4.20500       4.2050       7.9971   
    4.21000       4.2100       7.9971   
    4.21500       4.2150       7.9971   
    4.22000       4.2200       7.9971   
    4.22500       4.2250       7.9971   
    4.23000       4.2300       7.9971   
    4.23500       4.2350       7.9970   
    4.24000       4.2400       7.9970   
    4.24500       4.2450       7.9970   
    4.25000       4.2500       7.9970   
    4.25500       4.2550       7.9970   
    4.26000       4.2600       7.9970   
    4.26500       4.2650       7.9970   
    4.27000       4.2700       7.9970   
    4.27500       4.2750       7.9970   
    4.28000       4.2800       7.9970   
    4.28500       4.2850       7.9969   
    4.29000       4.2900       7.9969   
    4.29500       4.2950       7.9969   
    4.30000       4.3000       7.9969   
    4.30500       4.3050       7.9969   
    4.31000       4.3100       7.9969   
    4.31500       4.3150       7.9969   
    4.32000       4.3200       7.9969   
    4.32500       4.3250       7.9969   
    4.33000       4.3300       7.9969   
    4.33500       4.3350       7.9968   
    4.34000       4.3400       7.9968   
    4.34500       4.3450       7.9968   
    4.35000       4.3500       7.9968   
    4.35500       4.3550       7.9968   
    4.36000       4.3600       7.9968   
    4.36500       4.3650       7.9968   
    4.37000       4.3700       7.9968   
    4.37500       4.3750       7.9968   
    4.38000       4.3800       7.9967   
    4.38500       4.3850       7.9967   
    4.39000       4.3900       7.9967   
    4.39500       4.3950       7.9967   
    4.40000       4.4000       7.9967   
    4.40500       4.4050       7.9967   
    4.41000       4.4100       7.9967   
    4.41500       4.4150       7.9967   
    4.42000       4.4200       7.9967   
    4.42500       4.4250       7.9966   
    4.43000       4.4300       7.9966   
    4.43500       4.4350       7.9966   
    4.44000       4.4400       7.9966   
    4.44500       4.4450       7.9966   
    4.45000       4.4500       7.9966   
    4.45500       4.4550       7.9966   
    4.46000       4.4600       7.9966   
    4.46500       4.4650       7.9965   
    4.47000       4.4700       7.9965   
    4.47500       4.4750       7.9965   
    4.48000       4.4800       7.9965   
    4.48500       4.4850       7.9965   
    4.49000       4.4900       7.9965   
    4.49500       4.4950       7.9965   
    4.50000       4.5000       7.9965   
    4.50500       4.5050       7.9964   
    4.51000       4.5100       7.9964   
    4.51500       4.5150       7.9964   
    4.52000       4.5200       7.9964   
    4.52500       4.5250       7.9964   
    4.53000       4.5300       7.9964   
    4.53500       4.5350       7.9964   
    4.54000       4.5400       7.9964   
    4.54500       4.5450       7.9963   
    4.55000       4.5500       7.9963   
    4.55500       4.5550       7.9963   
    4.56000       4.5600       7.9963   
    4.56500       4.5650       7.9963   
    4.57000       4.5700       7.9963   
    4.57500       4.5750       7.9963   
    4.58000       4.5800       7.9962   
    4.58500       4.5850       7.9962   
    4.59000       4.5900       7.9962   
    4.59500       4.5950       7.9962   
    4.60000       4.6000       7.9962   
    4.60500       4.6050       7.9962   
    4.61000       4.6100       7.9962   
    4.61500       4.6150       7.9961   
    4.62000       4.6200       7.9961   
    4.62500       4.6250       7.9961   
    4.63000       4.6300       7.9961   
    4.63500       4.6350       7.9961   
    4.64000       4.6400       7.9961   
    4.64500       4.6450       7.9961   
    4.65000       4.6500       7.9960   
    4.65500       4.6550       7.9960   
    4.66000       4.6600       7.9960   
    4.66500       4.6650       7.9960   
    4.67000       4.6700       7.9960   
    4.67500       4.6750       7.9960   
    4.68000       4.6800       7.9959   
    4.68500       4.6850       7.9959   
    4.69000       4.6900       7.9959   
    4.69500       4.6950       7.9959   
    4.70000       4.7000       7.9959   
    4.70500       4.7050       7.9959   
    4.71000       4.7100       7.9958   
    4.71500       4.7150       7.9958   
    4.72000       4.7200       7.9958   
    4.72500       4.7250       7.9958   
    4.73000       4.7300       7.9958   
    4.73500       4.7350       7.9958   
    4.74000       4.7400       7.9957   
    4.74500       4.7450       7.9957   
    4.75000       4.7500       7.9957   
    4.75500       4.7550       7.9957   
    4.76000       4.7600       7.9957   
    4.76500       4.7650       7.9957   
    4.77000       4.7700       7.9956   
    4.77500       4.7750       7.9956   
    4.78000       4.7800       7.9956   
    4.78500       4.7850       7.9956   
    4.79000       4.7900       7.9956   
    4.79500       4.7950       7.9956   
    4.80000       4.8000       7.9955   
    4.80500       4.8050       7.9955   
    4.81000       4.8100       7.9955   
    4.81500       4.8150       7.9955   
    4.82000       4.8200       7.9955   
    4.82500       4.8250       7.9954   
    4.83000       4.8300       7.9954   
    4.83500       4.8350       7.9954   
    4.84000       4.8400       7.9954   
    4.84500       4.8450       7.9954   
    4.85000       4.8500       7.9954   
    4.85500       4.8550       7.9953   
    4.86000       4.8600       7.9953   
    4.86500       4.8650       7.9953   
    4.87000       4.8700       7.9953   
    4.87500       4.8750       7.9953   
    4.88000       4.8800       7.9952   
    4.88500       4.8850       7.9952   
    4.89000       4.8900       7.9952   
    4.89500       4.8950       7.9952   
    4.90000       4.9000       7.9952   
    4.90500       4.9050       7.9951   
    4.91000       4.9100       7.9951   
    4.91500       4.9150       7.9951   
    4.92000       4.9200       7.9951   
    4.92500       4.9250       7.9951   
    4.93000       4.9300       7.9950   
    4.93500       4.9350       7.9950   
    4.94000       4.9400       7.9950   
    4.94500       4.9450       7.9950   
    4.95000       4.9500       7.9949   
    4.95500       4.9550       7.9949   
    4.96000       4.9600       7.9949   
    4.96500       4.9650       7.9949   
    4.97000       4.9700       7.9949   
    4.97500       4.9750       7.9948   
    4.98000       4.9800       7.9948   
    4.98500       4.9850       7.9948   
    4.99000       4.9900       7.9948   
    4.99500       4.9950       7.9947   
    5.00000       5.0000       7.9947   
    5.00500       5.0050       7.9947   
    5.01000       5.0100       7.9947   
    5.01500       5.0150       7.9947   
    5.02000       5.0200       7.9946   
    5.02500       5.0250       7.9946   
    5.03000       5.0300       7.9946   
    5.03500       5.0350       7.9946   
    5.04000       5.0400       7.9945   
    5.04500       5.0450       7.9945   
    5.05000       5.0500       7.9945   
    5.05500       5.0550       7.9945   
    5.06000       5.0600       7.9944   
    5.06500       5.0650       7.9944   
    5.07000       5.0700       7.9944   
    5.07500       5.0750       7.9944   
    5.08000       5.0800       7.9943   
    5.08500       5.0850       7.9943   
    5.09000       5.0900       7.9943   
    5.09500       5.0950       7.9943   
    5.10000       5.1000       7.9942   
    5.10500       5.1050       7.9942   
    5.11000       5.1100       7.9942   
    5.11500       5.1150       7.9942   
    5.12000       5.1200       7.9941   
    5.12500       5.1250       7.9941   
    5.13000       5.1300       7.9941   
    5.13500       5.1350       7.9940   
    5.14000       5.1400       7.9940   
    5.14500       5.1450       7.9940   
    5.15000       5.1500       7.9940   
    5.15500       5.1550       7.9939   
    5.16000       5.1600       7.9939   
    5.16500       5.1650       7.9939   
    5.17000       5.1700       7.9939   
    5.17500       5.1750       7.9938   
    5.18000       5.1800       7.9938   
    5.18500       5.1850       7.9938   
    5.19000       5.1900       7.9937   
    5.19500       5.1950       7.9937   
    5.20000       5.2000       7.9937   
    5.20500       5.2050       7.9937   
    5.21000       5.2100       7.9936   
    5.21500       5.2150       7.9936   
    5.22000       5.2200       7.9936   
    5.22500       5.2250       7.9935   
    5.23000       5.2300       7.9935   
    5.23500       5.2350       7.9935   
    5.24000       5.2400       7.9934   
    5.24500       5.2450       7.9934   
    5.25000       5.2500       7.9934   
    5.25500       5.2550       7.9933   
    5.26000       5.2600       7.9933   
    5.26500       5.2650       7.9933   
    5.27000       5.2700       7.9933   
    5.27500       5.2750       7.9932   
    5.28000       5.2800       7.9932   
    5.28500       5.2850       7.9932   
    5.29000       5.2900       7.9931   
    5.29500       5.2950       7.9931   
    5.30000       5.3000       7.9931   
    5.30500       5.3050       7.9930   
    5.31000       5.3100       7.9930   
    5.31500       5.3150       7.9930   
    5.32000       5.3200       7.9929   
    5.32500       5.3250       7.9929   
    5.33000       5.3300       7.9929   
    5.33500       5.3350       7.9928   
    5.34000       5.3400       7.9928   
    5.34500       5.3450       7.9927   
    5.35000       5.3500       7.9927   
    5.35500       5.3550       7.9927   
    5.36000       5.3600       7.9926   
    5.36500       5.3650       7.9926   
    5.37000       5.3700       7.9926   
    5.37500       5.3750       7.9925   
    5.38000       5.3800       7.9925   
    5.38500       5.3850       7.9925   
    5.39000       5.3900       7.9924   
    5.39500       5.3950       7.9924   
    5.40000       5.4000       7.9923   
    5.40500       5.4050       7.9923   
    5.41000       5.4100       7.9923   
    5.41500       5.4150       7.9922   
    5.42000       5.4200       7.9922   
    5.42500       5.4250       7.9922   
    5.43000       5.4300       7.9921   
    5.43500       5.4350       7.9921   
    5.44000       5.4400       7.9920   
    5.44500       5.4450       7.9920   
    5.45000       5.4500       7.9920   
    5.45500       5.4550       7.9919   
    5.46000       5.4600       7.9919   
    5.46500       5.4650       7.9918   
    5.47000       5.4700       7.9918   
    5.47500       5.4750       7.9918   
    5.48000       5.4800       7.9917   
    5.48500       5.4850       7.9917   
    5.49000       5.4900       7.9916   
    5.49500       5.4950       7.9916   
    5.50000       5.5000       7.9916   
    5.50500       5.5050       7.9915   
    5.51000       5.5100       7.9915   
    5.51500       5.5150       7.9914   
    5.52000       5.5200       7.9914   
    5.52500       5.5250       7.9913   
    5.53000       5.5300       7.9913   
    5.53500       5.5350       7.9912   
    5.54000       5.5400       7.9912   
    5.54500       5.5450       7.9912   
    5.55000       5.5500       7.9911   
    5.55500       5.5550       7.9911   
    5.56000       5.5600       7.9910   
    5.56500       5.5650       7.9910   
    5.57000       5.5700       7.9909   
    5.57500       5.5750       7.9909   
    5.58000       5.5800       7.9908   
    5.58500       5.5850       7.9908   
    5.59000       5.5900       7.9907   
    5.59500       5.5950       7.9907   
    5.60000       5.6000       7.9906   
    5.60500       5.6050       7.9906   
    5.61000       5.6100       7.9905   
    5.61500       5.6150       7.9905   
    5.62000       5.6200       7.9905   
    5.62500       5.6250       7.9904   
    5.63000       5.6300       7.9904   
    5.63500       5.6350       7.9903   
    5.64000       5.6400       7.9903   
    5.64500       5.6450       7.9902   
    5.65000       5.6500       7.9901   
    5.65500       5.6550       7.9901   
    5.66000       5.6600       7.9900   
    5.66500       5.6650       7.9900   
    5.67000       5.6700       7.9899   
    5.67500       5.6750       7.9899   
    5.68000       5.6800       7.9898   
    5.68500       5.6850       7.9898   
    5.69000       5.6900       7.9897   
    5.69500       5.6950       7.9897   
    5.70000       5.7000       7.9896   
    5.70500       5.7050       7.9896   
    5.71000       5.7100       7.9895   
    5.71500       5.7150       7.9895   
    5.72000       5.7200       7.9894   
    5.72500       5.7250       7.9893   
    5.73000       5.7300       7.9893   
    5.73500       5.7350       7.9892   
    5.74000       5.7400       7.9892   
    5.74500       5.7450       7.9891   
    5.75000       5.7500       7.9891   
    5.75500       5.7550       7.9890   
    5.76000       5.7600       7.9889   
    5.76500       5.7650       7.9889   
    5.77000       5.7700       7.9888   
    5.77500       5.7750       7.9888   
    5.78000       5.7800       7.9887   
    5.78500       5.7850       7.9886   
    5.79000       5.7900       7.9886   
    5.79500       5.7950       7.9885   
    5.80000       5.8000       7.9885   
    5.80500       5.8050       7.9884   
    5.81000       5.8100       7.9883   
    5.81500       5.8150       7.9883   
    5.82000       5.8200       7.9882   
    5.82500       5.8250       7.9881   
    5.83000       5.8300       7.9881   
    5.83500       5.8350       7.9880   
    5.84000       5.8400       7.9880   
    5.84500       5.8450       7.9879   
    5.85000       5.8500       7.9878   
    5.85500       5.8550       7.9878   
    5.86000       5.8600       7.9877   
    5.86500       5.8650       7.9876   
    5.87000       5.8700       7.9876   
    5.87500       5.8750       7.9875   
    5.88000       5.8800       7.9874   
    5.88500       5.8850       7.9874   
    5.89000       5.8900       7.9873   
    5.89500       5.8950       7.9872   
    5.90000       5.9000       7.9871   
    5.90500       5.9050       7.9871   
    5.91000       5.9100       7.9870   
    5.91500       5.9150       7.9869   
    5.92000       5.9200       7.9869   
    5.92500       5.9250       7.9868   
    5.93000       5.9300       7.9867   
    5.93500       5.9350       7.9866   
    5.94000       5.9400       7.9866   
    5.94500       5.9450       7.9865   
    5.95000       5.9500       7.9864   
    5.95500       5.9550       7.9863   
    5.96000       5.9600       7.9863   
    5.96500       5.9650       7.9862   
    5.97000       5.9700       7.9861   
    5.97500       5.9750       7.9860   
    5.98000       5.9800       7.9860   
    5.98500       5.9850       7.9859   
    5.99000       5.9900       7.9858   
    5.99500       5.9950       7.9857   
    6.00000       6.0000       7.9856   
    6.00500       6.0050       7.9856   
    6.01000       6.0100       7.9855   
    6.01500       6.0150       7.9854   
    6.02000       6.0200       7.9853   
    6.02500       6.0250       7.9852   
    6.03000       6.0300       7.9852   
    6.03500       6.0350       7.9851   
    6.04000       6.0400       7.9850   
    6.04500       6.0450       7.9849   
    6.05000       6.0500       7.9848   
    6.05500       6.0550       7.9847   
    6.06000       6.0600       7.9847   
    6.06500       6.0650       7.9846   
    6.07000       6.0700       7.9845   
    6.07500       6.0750       7.9844   
    6.08000       6.0800       7.9843   
    6.08500       6.0850       7.9842   
    6.09000       6.0900       7.9841   
    6.09500       6.0950       7.9840   
    6.10000       6.1000       7.9840   
    6.10500       6.1050       7.9839   
    6.11000       6.1100       7.9838   
    6.11500       6.1150       7.9837   
    6.12000       6.1200       7.9836   
    6.12500       6.1250       7.9835   
    6.13000       6.1300       7.9834   
    6.13500       6.1350       7.9833   
    6.14000       6.1400       7.9832   
    6.14500       6.1450       7.9831   
    6.15000       6.1500       7.9830   
    6.15500       6.1550       7.9829   
    6.16000       6.1600       7.9828   
    6.16500       6.1650       7.9827   
    6.17000       6.1700       7.9826   
    6.17500       6.1750       7.9825   
    6.18000       6.1800       7.9824   
    6.18500       6.1850       7.9823   
    6.19000       6.1900       7.9822   
    6.19500       6.1950       7.9821   
    6.20000       6.2000       7.9820   
    6.20500       6.2050       7.9819   
    6.21000       6.2100       7.9818   
    6.21500       6.2150       7.9817   
[...]
   57.78500      57.7850     -73.0997   
   57.79000      57.7900     -73.1185   
   57.79500      57.7950     -73.1374   
   57.80000      57.8000     -73.1562   
   57.80500      57.8050     -73.1751   
   57.81000      57.8100     -73.1939   
   57.81500      57.8150     -73.2128   
   57.82000      57.8200     -73.2316   
   57.82500      57.8250     -73.2504   
   57.83000      57.8300     -73.2693   
   57.83500      57.8350     -73.2881   
   57.84000      57.8400     -73.3070   
   57.84500      57.8450     -73.3258   
   57.85000      57.8500     -73.3447   
   57.85500      57.8550     -73.3635   
   57.86000      57.8600     -73.3824   
   57.86500      57.8650     -73.4012   
   57.87000      57.8700     -73.4201   
   57.87500      57.8750     -73.4389   
   57.88000      57.8800     -73.4578   
   57.88500      57.8850     -73.4766   
   57.89000      57.8900     -73.4955   
   57.89500      57.8950     -73.5143   
   57.90000      57.9000     -73.5332   
   57.90500      57.9050     -73.5521   
   57.91000      57.9100     -73.5709   
   57.91500      57.9150     -73.5898   
   57.92000      57.9200     -73.6086   
   57.92500      57.9250     -73.6275   
   57.93000      57.9300     -73.6463   
   57.93500      57.9350     -73.6652   
   57.94000      57.9400     -73.6840   
   57.94500      57.9450     -73.7029   
   57.95000      57.9500     -73.7218   
   57.95500      57.9550     -73.7406   
   57.96000      57.9600     -73.7595   
   57.96500      57.9650     -73.7783   
   57.97000      57.9700     -73.7972   
   57.97500      57.9750     -73.8161   
   57.98000      57.9800     -73.8349   
   57.98500      57.9850     -73.8538   
   57.99000      57.9900     -73.8726   
   57.99500      57.9950     -73.8915   
   58.00000      58.0000     -73.9104   
   58.00500      58.0050     -73.9292   
   58.01000      58.0100     -73.9481   
   58.01500      58.0150     -73.9670   
   58.02000      58.0200     -73.9858   
   58.02500      58.0250     -74.0047   
   58.03000      58.0300     -74.0236   
   58.03500      58.0350     -74.0424   
   58.04000      58.0400     -74.0613   
   58.04500      58.0450     -74.0802   
   58.05000      58.0500     -74.0990   
   58.05500      58.0550     -74.1179   
   58.06000      58.0600     -74.1368   
   58.06500      58.0650     -74.1556   
   58.07000      58.0700     -74.1745   
   58.07500      58.0750     -74.1934   
   58.08000      58.0800     -74.2122   
   58.08500      58.0850     -74.2311   
   58.09000      58.0900     -74.2500   
   58.09500      58.0950     -74.2689   
   58.10000      58.1000     -74.2877   
   58.10500      58.1050     -74.3066   
   58.11000      58.1100     -74.3255   
   58.11500      58.1150     -74.3443   
   58.12000      58.1200     -74.3632   
   58.12500      58.1250     -74.3821   
   58.13000      58.1300     -74.4010   
   58.13500      58.1350     -74.4198   
   58.14000      58.1400     -74.4387   
   58.14500      58.1450     -74.4576   
   58.15000      58.1500     -74.4765   
   58.15500      58.1550     -74.4954   
   58.16000      58.1600     -74.5142   
   58.16500      58.1650     -74.5331   
   58.17000      58.1700     -74.5520   
   58.17500      58.1750     -74.5709   
   58.18000      58.1800     -74.5897   
   58.18500      58.1850     -74.6086   
   58.19000      58.1900     -74.6275   
   58.19500      58.1950     -74.6464   
   58.20000      58.2000     -74.6653   
   58.20500      58.2050     -74.6842   
   58.21000      58.2100     -74.7030   
   58.21500      58.2150     -74.7219   
   58.22000      58.2200     -74.7408   
   58.22500      58.2250     -74.7597   
   58.23000      58.2300     -74.7786   
   58.23500      58.2350     -74.7975   
   58.24000      58.2400     -74.8163   
   58.24500      58.2450     -74.8352   
   58.25000      58.2500     -74.8541   
   58.25500      58.2550     -74.8730   
   58.26000      58.2600     -74.8919   
   58.26500      58.2650     -74.9108   
   58.27000      58.2700     -74.9297   
   58.27500      58.2750     -74.9485   
   58.28000      58.2800     -74.9674   
   58.28500      58.2850     -74.9863   
   58.29000      58.2900     -75.0052   
   58.29500      58.2950     -75.0241   
   58.30000      58.3000     -75.0430   
   58.30500      58.3050     -75.0619   
   58.31000      58.3100     -75.0808   
   58.31500      58.3150     -75.0997   
   58.32000      58.3200     -75.1186   
   58.32500      58.3250     -75.1375   
   58.33000      58.3300     -75.1564   
   58.33500      58.3350     -75.1752   
   58.34000      58.3400     -75.1941   
   58.34500      58.3450     -75.2130   
   58.35000      58.3500     -75.2319   
   58.35500      58.3550     -75.2508   
   58.36000      58.3600     -75.2697   
   58.36500      58.3650     -75.2886   
   58.37000      58.3700     -75.3075   
   58.37500      58.3750     -75.3264   
   58.38000      58.3800     -75.3453   
   58.38500      58.3850     -75.3642   
   58.39000      58.3900     -75.3831   
   58.39500      58.3950     -75.4020   
   58.40000      58.4000     -75.4209   
   58.40500      58.4050     -75.4398   
   58.41000      58.4100     -75.4587   
   58.41500      58.4150     -75.4776   
   58.42000      58.4200     -75.4965   
   58.42500      58.4250     -75.5154   
   58.43000      58.4300     -75.5343   
   58.43500      58.4350     -75.5532   
   58.44000      58.4400     -75.5721   
   58.44500      58.4450     -75.5910   
   58.45000      58.4500     -75.6099   
   58.45500      58.4550     -75.6288   
   58.46000      58.4600     -75.6477   
   58.46500      58.4650     -75.6667   
   58.47000      58.4700     -75.6856   
   58.47500      58.4750     -75.7045   
   58.48000      58.4800     -75.7234   
   58.48500      58.4850     -75.7423   
   58.49000      58.4900     -75.7612   
   58.49500      58.4950     -75.7801   
   58.50000      58.5000     -75.7990   
   58.50500      58.5050     -75.8179   
   58.51000      58.5100     -75.8368   
   58.51500      58.5150     -75.8557   
   58.52000      58.5200     -75.8746   
   58.52500      58.5250     -75.8936   
   58.53000      58.5300     -75.9125   
   58.53500      58.5350     -75.9314   
   58.54000      58.5400     -75.9503   
   58.54500      58.5450     -75.9692   
   58.55000      58.5500     -75.9881   
   58.55500      58.5550     -76.0070   
   58.56000      58.5600     -76.0259   
   58.56500      58.5650     -76.0449   
   58.57000      58.5700     -76.0638   
   58.57500      58.5750     -76.0827   
   58.58000      58.5800     -76.1016   
   58.58500      58.5850     -76.1205   
   58.59000      58.5900     -76.1394   
   58.59500      58.5950     -76.1584   
   58.60000      58.6000     -76.1773   
   58.60500      58.6050     -76.1962   
   58.61000      58.6100     -76.2151   
   58.61500      58.6150     -76.2340   
   58.62000      58.6200     -76.2530   
   58.62500      58.6250     -76.2719   
   58.63000      58.6300     -76.2908   
   58.63500      58.6350     -76.3097   
   58.64000      58.6400     -76.3286   
   58.64500      58.6450     -76.3476   
   58.65000      58.6500     -76.3665   
   58.65500      58.6550     -76.3854   
   58.66000      58.6600     -76.4043   
   58.66500      58.6650     -76.4233   
   58.67000      58.6700     -76.4422   
   58.67500      58.6750     -76.4611   
   58.68000      58.6800     -76.4800   
   58.68500      58.6850     -76.4990   
   58.69000      58.6900     -76.5179   
   58.69500      58.6950     -76.5368   
   58.70000      58.7000     -76.5557   
   58.70500      58.7050     -76.5747   
   58.71000      58.7100     -76.5936   
   58.71500      58.7150     -76.6125   
   58.72000      58.7200     -76.6314   
   58.72500      58.7250     -76.6504   
   58.73000      58.7300     -76.6693   
   58.73500      58.7350     -76.6882   
   58.74000      58.7400     -76.7072   
   58.74500      58.7450     -76.7261   
   58.75000      58.7500     -76.7450   
   58.75500      58.7550     -76.7640   
   58.76000      58.7600     -76.7829   
   58.76500      58.7650     -76.8018   
   58.77000      58.7700     -76.8208   
   58.77500      58.7750     -76.8397   
   58.78000      58.7800     -76.8586   
   58.78500      58.7850     -76.8776   
   58.79000      58.7900     -76.8965   
   58.79500      58.7950     -76.9154   
   58.80000      58.8000     -76.9344   
   58.80500      58.8050     -76.9533   
   58.81000      58.8100     -76.9722   
   58.81500      58.8150     -76.9912   
   58.82000      58.8200     -77.0101   
   58.82500      58.8250     -77.0291   
   58.83000      58.8300     -77.0480   
   58.83500      58.8350     -77.0669   
   58.84000      58.8400     -77.0859   
   58.84500      58.8450     -77.1048   
   58.85000      58.8500     -77.1238   
   58.85500      58.8550     -77.1427   
   58.86000      58.8600     -77.1616   
   58.86500      58.8650     -77.1806   
   58.87000      58.8700     -77.1995   
   58.87500      58.8750     -77.2185   
   58.88000      58.8800     -77.2374   
   58.88500      58.8850     -77.2563   
   58.89000      58.8900     -77.2753   
   58.89500      58.8950     -77.2942   
   58.90000      58.9000     -77.3132   
   58.90500      58.9050     -77.3321   
   58.91000      58.9100     -77.3511   
   58.91500      58.9150     -77.3700   
   58.92000      58.9200     -77.3890   
   58.92500      58.9250     -77.4079   
   58.93000      58.9300     -77.4269   
   58.93500      58.9350     -77.4458   
   58.94000      58.9400     -77.4648   
   58.94500      58.9450     -77.4837   
   58.95000      58.9500     -77.5027   
   58.95500      58.9550     -77.5216   
   58.96000      58.9600     -77.5405   
   58.96500      58.9650     -77.5595   
   58.97000      58.9700     -77.5785   
   58.97500      58.9750     -77.5974   
   58.98000      58.9800     -77.6164   
   58.98500      58.9850     -77.6353   
   58.99000      58.9900     -77.6543   
   58.99500      58.9950     -77.6732   
   59.00000      59.0000     -77.6922   
   59.00500      59.0050     -77.7111   
   59.01000      59.0100     -77.7301   
   59.01500      59.0150     -77.7490   
   59.02000      59.0200     -77.7680   
   59.02500      59.0250     -77.7869   
   59.03000      59.0300     -77.8059   
   59.03500      59.0350     -77.8249   
   59.04000      59.0400     -77.8438   
   59.04500      59.0450     -77.8628   
   59.05000      59.0500     -77.8817   
   59.05500      59.0550     -77.9007   
   59.06000      59.0600     -77.9196   
   59.06500      59.0650     -77.9386   
   59.07000      59.0700     -77.9576   
   59.07500      59.0750     -77.9765   
   59.08000      59.0800     -77.9955   
   59.08500      59.0850     -78.0144   
   59.09000      59.0900     -78.0334   
   59.09500      59.0950     -78.0524   
   59.10000      59.1000     -78.0713   
   59.10500      59.1050     -78.0903   
   59.11000      59.1100     -78.1093   
   59.11500      59.1150     -78.1282   
   59.12000      59.1200     -78.1472   
   59.12500      59.1250     -78.1661   
   59.13000      59.1300     -78.1851   
   59.13500      59.1350     -78.2041   
   59.14000      59.1400     -78.2230   
   59.14500      59.1450     -78.2420   
   59.15000      59.1500     -78.2610   
   59.15500      59.1550     -78.2799   
   59.16000      59.1600     -78.2989   
   59.16500      59.1650     -78.3179   
   59.17000      59.1700     -78.3368   
   59.17500      59.1750     -78.3558   
   59.18000      59.1800     -78.3748   
   59.18500      59.1850     -78.3937   
   59.19000      59.1900     -78.4127   
   59.19500      59.1950     -78.4317   
   59.20000      59.2000     -78.4507   
   59.20500      59.2050     -78.4696   
   59.21000      59.2100     -78.4886   
   59.21500      59.2150     -78.5076   
   59.22000      59.2200     -78.5265   
   59.22500      59.2250     -78.5455   
   59.23000      59.2300     -78.5645   
   59.23500      59.2350     -78.5835   
   59.24000      59.2400     -78.6024   
   59.24500      59.2450     -78.6214   
   59.25000      59.2500     -78.6404   
   59.25500      59.2550     -78.6594   
   59.26000      59.2600     -78.6783   
   59.26500      59.2650     -78.6973   
   59.27000      59.2700     -78.7163   
   59.27500      59.2750     -78.7353   
   59.28000      59.2800     -78.7542   
   59.28500      59.2850     -78.7732   
   59.29000      59.2900     -78.7922   
   59.29500      59.2950     -78.8112   
   59.30000      59.3000     -78.8302   
   59.30500      59.3050     -78.8491   
   59.31000      59.3100     -78.8681   
   59.31500      59.3150     -78.8871   
   59.32000      59.3200     -78.9061   
   59.32500      59.3250     -78.9251   
   59.33000      59.3300     -78.9440   
   59.33500      59.3350     -78.9630   
   59.34000      59.3400     -78.9820   
   59.34500      59.3450     -79.0010   
   59.35000      59.3500     -79.0200   
   59.35500      59.3550     -79.0390   
   59.36000      59.3600     -79.0579   
   59.36500      59.3650     -79.0769   
   59.37000      59.3700     -79.0959   
   59.37500      59.3750     -79.1149   
   59.38000      59.3800     -79.1339   
   59.38500      59.3850     -79.1529   
   59.39000      59.3900     -79.1719   
   59.39500      59.3950     -79.1908   
   59.40000      59.4000     -79.2098   
   59.40500      59.4050     -79.2288   
   59.41000      59.4100     -79.2478   
   59.41500      59.4150     -79.2668   
   59.42000      59.4200     -79.2858   
   59.42500      59.4250     -79.3048   
   59.43000      59.4300     -79.3238   
   59.43500      59.4350     -79.3428   
   59.44000      59.4400     -79.3618   
   59.44500      59.4450     -79.3807   
   59.45000      59.4500     -79.3997   
   59.45500      59.4550     -79.4187   
   59.46000      59.4600     -79.4377   
   59.46500      59.4650     -79.4567   
   59.47000      59.4700     -79.4757   
   59.47500      59.4750     -79.4947   
   59.48000      59.4800     -79.5137   
   59.48500      59.4850     -79.5327   
   59.49000      59.4900     -79.5517   
   59.49500      59.4950     -79.5707   
   59.50000      59.5000     -79.5897   
   59.50500      59.5050     -79.6087   
   59.51000      59.5100     -79.6277   
   59.51500      59.5150     -79.6467   
   59.52000      59.5200     -79.6657   
   59.52500      59.5250     -79.6847   
   59.53000      59.5300     -79.7037   
   59.53500      59.5350     -79.7227   
   59.54000      59.5400     -79.7417   
   59.54500      59.5450     -79.7607   
   59.55000      59.5500     -79.7797   
   59.55500      59.5550     -79.7987   
   59.56000      59.5600     -79.8177   
   59.56500      59.5650     -79.8367   
   59.57000      59.5700     -79.8557   
   59.57500      59.5750     -79.8747   
   59.58000      59.5800     -79.8937   
   59.58500      59.5850     -79.9127   
   59.59000      59.5900     -79.9317   
   59.59500      59.5950     -79.9507   
   59.60000      59.6000     -79.9697   
   59.60500      59.6050     -79.9887   
   59.61000      59.6100     -80.0077   
   59.61500      59.6150     -80.0267   
   59.62000      59.6200     -80.0457   
   59.62500      59.6250     -80.0647   
   59.63000      59.6300     -80.0837   
   59.63500      59.6350     -80.1027   
   59.64000      59.6400     -80.1217   
   59.64500      59.6450     -80.1408   
   59.65000      59.6500     -80.1598   
   59.65500      59.6550     -80.1788   
   59.66000      59.6600     -80.1978   
   59.66500      59.6650     -80.2168   
   59.67000      59.6700     -80.2358   
   59.67500      59.6750     -80.2548   
   59.68000      59.6800     -80.2738   
   59.68500      59.6850     -80.2928   
   59.69000      59.6900     -80.3118   
   59.69500      59.6950     -80.3309   
   59.70000      59.7000     -80.3499   
   59.70500      59.7050     -80.3689   
   59.71000      59.7100     -80.3879   
   59.71500      59.7150     -80.4069   
   59.72000      59.7200     -80.4259   
   59.72500      59.7250     -80.4449   
   59.73000      59.7300     -80.4640   
   59.73500      59.7350     -80.4830   
   59.74000      59.7400     -80.5020   
   59.74500      59.7450     -80.5210   
   59.75000      59.7500     -80.5400   
   59.75500      59.7550     -80.5590   
   59.76000      59.7600     -80.5781   
   59.76500      59.7650     -80.5971   
   59.77000      59.7700     -80.6161   
   59.77500      59.7750     -80.6351   
   59.78000      59.7800     -80.6541   
   59.78500      59.7850     -80.6732   
   59.79000      59.7900     -80.6922   
   59.79500      59.7950     -80.7112   
   59.80000      59.8000     -80.7302   
   59.80500      59.8050     -80.7492   
   59.81000      59.8100     -80.7683   
   59.81500      59.8150     -80.7873   
   59.82000      59.8200     -80.8063   
   59.82500      59.8250     -80.8253   
   59.83000      59.8300     -80.8444   
   59.83500      59.8350     -80.8634   
   59.84000      59.8400     -80.8824   
   59.84500      59.8450     -80.9014   
   59.85000      59.8500     -80.9204   
   59.85500      59.8550     -80.9395   
   59.86000      59.8600     -80.9585   
   59.86500      59.8650     -80.9775   
   59.87000      59.8700     -80.9966   
   59.87500      59.8750     -81.0156   
   59.88000      59.8800     -81.0346   
   59.88500      59.8850     -81.0536   
   59.89000      59.8900     -81.0727   
   59.89500      59.8950     -81.0917   
   59.90000      59.9000     -81.1107   
   59.90500      59.9050     -81.1298   
   59.91000      59.9100     -81.1488   
   59.91500      59.9150     -81.1678   
   59.92000      59.9200     -81.1868   
   59.92500      59.9250     -81.2059   
   59.93000      59.9300     -81.2249   
   59.93500      59.9350     -81.2439   
   59.94000      59.9400     -81.2630   
   59.94500      59.9450     -81.2820   
   59.95000      59.9500     -81.3010   
   59.95500      59.9550     -81.3201   
   59.96000      59.9600     -81.3391   
   59.96500      59.9650     -81.3581   
   59.97000      59.9700     -81.3772   
   59.97500      59.9750     -81.3962   
   59.98000      59.9800     -81.4152   
   59.98500      59.9850     -81.4343   
   59.99000      59.9900     -81.4533   
   59.99500      59.9950     -81.4724   
   60.00000      60.0000     -81.4914   
y

          ***** job concluded
1****** HSPICE -- C-2009.03-SP1 32-BIT (May 25 2009) winnt ******               
 ******  
 ** 60 cascaded, 2 paralleled cells

  ******  job statistics summary tnom=  25.000 temp=  25.000 *****

  ******  HSPICE Threads Information  ******
  Command Line Threads Count                  :     1
  Available CPU Count                         :     8
  Actual Model Evaluation(Load) Threads Count :     1
  Actual Solver Threads Count                 :     1


  ******  Circuit Statistics  ******
  # nodes       =      38 # elements   =      64
  # resistors   =      39 # capacitors =       0 # inductors   =       0
  # mutual_inds =       0 # vccs       =       0 # vcvs        =       0
  # cccs        =       0 # ccvs       =       0 # volt_srcs   =       1
  # curr_srcs   =       9 # diodes     =      15 # bjts        =       0
  # jfets       =       0 # mosfets    =       0 # U elements  =       0
  # T elements  =       0 # W elements =       0 # B elements  =       0
  # S elements  =       0 # P elements =       0 # va device   =       0


  ******  Runtime Statistics (seconds)  ******

  analysis           time    # points   tot. iter  conv.iter
  op point           0.00           1           0
  dc sweep           1.09       12001       24114
  readin             0.08
  errchk             0.01
  setup              0.02
  output             0.03


           total memory used          367  kbytes
           total cpu time            1.35 seconds
           total elapsed time        1.41 seconds
           job started at     14:11:12 06/23/2015
           job ended   at     14:11:13 06/23/2015


 Init: hspice initialization file: C:\synopsys\Hspice_C-2009.03-SP1\hspice.ini
  lic: Release hspice token(s) 
