 ****** HSPICE -- C-2009.03-SP1 32-BIT (May 25 2009) winnt ******               
  Copyright (C) 2009 Synopsys, Inc. All Rights Reserved.                        
  Unpublished-rights reserved under US copyright laws.
  This program is protected by law and is subject to the 
  terms and conditions of the license agreement from Synopsys.
  Use of this program is your acceptance to be bound by the 
  license agreement. HSPICE is the trademark of Synopsys, Inc.
  Input File: C:\Users\Administrator\Desktop\MultiLevel\cw2Model.sp             
  lic:  
  lic: FLEXlm: v8.5b 
  lic: USER:   Administrator        HOSTNAME: WIN-HBGPFB5Q4D3 
  lic: HOSTID: "002268384615 005056c00001 005056c00008" PID:      1388 
  lic: Using FLEXlm license file: 
  lic: C:\synopsys\hspice_2009-03.lic 
  lic: Checkout 1 hspice 
  lic: License/Maintenance for hspice will expire on 31-dec-2020/2007.9 
  lic: NODE LOCKED license on hostid "002268384615 005056c00001 005056c00008" 
  lic:   
 Init: read install configuration file: C:\synopsys\Hspice_C-2009.03-SP1\meta.cfg
 Init: hspice initialization file: C:\synopsys\Hspice_C-2009.03-SP1\hspice.ini




1****** HSPICE -- C-2009.03-SP1 32-BIT (May 25 2009) winnt ******               
 ******  
 ** 30 cascaded, 4 paralleled cells

  ******  diode model parameters tnom=  25.000 temp=  25.000 *****
 ********************************************************
 *** common model parameters model name:   0:diode111****
 ********************************************************

     names  values   units     names  values   units     names  values   units
     -----  ------   -----     -----  ------   -----     -----  ------   -----

   1*** dc breakdown parameters ***
       vb=   0.    volts        ibv=   1.00m amps   

   2*** parasitic resistance parameters ***
       rs=   0.    ohms   

   3*** capacitance parameters ***
       fc= 500.00m              fcs= 500.00m                m= 500.00m        
     mjsw= 330.00m               pb= 800.00m volts        php= 800.00m volts  
       tt=   0.    secs         cjo=   0.    f/area       cjp=   0.    f/pj   

   4*** temperature effect parameters ***
     tlev=   0.               tlevc=   0.                 tcv=   0.    v/deg k
      trs=   0.    /deg         cta=   0.    /deg         ctp=   0.    /deg   
      xti=   3.00            xtitun=   3.00               keg=   1.00         
       eg=   1.11  ev          gap1= 702.00u  ev/deg     gap2=   1.11k  deg   
     ttt1=   0.    /deg        ttt2=   0.    /deg2        tm1=   0.    /deg   
      tm2=   0.    /deg2        tpb=   0.    v/deg k     tphp=   0.    v/deg k
     tref=  25.00   deg c 

   5*** noise parameters ***
       kf=   0.                  af=   1.00         

   ***  level   1  model parameters  ***

    level=   1.00                is=   1.00u amps         jsw=   0.    amps   
        n=  18.00               nbv=  18.00                ik=   0.    amp    
     area=   1.00                pj=   0.                 ikr=   0.    amp    
    expli=   0.    amps      explir=   0.    amps        jtun=   0.    amps   
   jtunsw=   0.    amps        ntun=  30.00         
  
 ********************************************************
 *** common model parameters model name:   0:diode11_****
 ********************************************************

     names  values   units     names  values   units     names  values   units
     -----  ------   -----     -----  ------   -----     -----  ------   -----

   1*** dc breakdown parameters ***
       vb=   0.    volts        ibv=   1.00m amps   

   2*** parasitic resistance parameters ***
       rs=   0.    ohms   

   3*** capacitance parameters ***
       fc= 500.00m              fcs= 500.00m                m= 500.00m        
     mjsw= 330.00m               pb= 800.00m volts        php= 800.00m volts  
       tt=   0.    secs         cjo=   0.    f/area       cjp=   0.    f/pj   

   4*** temperature effect parameters ***
     tlev=   0.               tlevc=   0.                 tcv=   0.    v/deg k
      trs=   0.    /deg         cta=   0.    /deg         ctp=   0.    /deg   
      xti=   3.00            xtitun=   3.00               keg=   1.00         
       eg=   1.11  ev          gap1= 702.00u  ev/deg     gap2=   1.11k  deg   
     ttt1=   0.    /deg        ttt2=   0.    /deg2        tm1=   0.    /deg   
      tm2=   0.    /deg2        tpb=   0.    v/deg k     tphp=   0.    v/deg k
     tref=  25.00   deg c 

   5*** noise parameters ***
       kf=   0.                  af=   1.00         

   ***  level   1  model parameters  ***

    level=   1.00                is=   1.00u amps         jsw=   0.    amps   
        n=   4.50               nbv=   4.50                ik=   0.    amp    
     area=   1.00                pj=   0.                 ikr=   0.    amp    
    expli=   0.    amps      explir=   0.    amps        jtun=   0.    amps   
   jtunsw=   0.    amps        ntun=  30.00         
  
 ********************************************************
 *** common model parameters model name:   0:diode_bp****
 ********************************************************

     names  values   units     names  values   units     names  values   units
     -----  ------   -----     -----  ------   -----     -----  ------   -----

   1*** dc breakdown parameters ***
       vb=   0.    volts        ibv=   1.00m amps   

   2*** parasitic resistance parameters ***
       rs=   0.    ohms   

   3*** capacitance parameters ***
       fc= 500.00m              fcs= 500.00m                m= 500.00m        
     mjsw= 330.00m               pb= 800.00m volts        php= 800.00m volts  
       tt=   0.    secs         cjo=   0.    f/area       cjp=   0.    f/pj   

   4*** temperature effect parameters ***
     tlev=   0.               tlevc=   0.                 tcv=   0.    v/deg k
      trs=   0.    /deg         cta=   0.    /deg         ctp=   0.    /deg   
      xti=   3.00            xtitun=   3.00               keg=   1.00         
       eg=   1.11  ev          gap1= 702.00u  ev/deg     gap2=   1.11k  deg   
     ttt1=   0.    /deg        ttt2=   0.    /deg2        tm1=   0.    /deg   
      tm2=   0.    /deg2        tpb=   0.    v/deg k     tphp=   0.    v/deg k
     tref=  25.00   deg c 

   5*** noise parameters ***
       kf=   0.                  af=   1.00         

   ***  level   1  model parameters  ***

    level=   1.00                is=  10.00u amps         jsw=   0.    amps   
        n=   1.00               nbv=   1.00                ik=   0.    amp    
     area=   1.00                pj=   0.                 ikr=   0.    amp    
    expli=   0.    amps      explir=   0.    amps        jtun=   0.    amps   
   jtunsw=   0.    amps        ntun=  30.00         
  
 ********************************************************
 *** common model parameters model name:   0:diode112****
 ********************************************************

     names  values   units     names  values   units     names  values   units
     -----  ------   -----     -----  ------   -----     -----  ------   -----

   1*** dc breakdown parameters ***
       vb=   0.    volts        ibv=   1.00m amps   

   2*** parasitic resistance parameters ***
       rs=   0.    ohms   

   3*** capacitance parameters ***
       fc= 500.00m              fcs= 500.00m                m= 500.00m        
     mjsw= 330.00m               pb= 800.00m volts        php= 800.00m volts  
       tt=   0.    secs         cjo=   0.    f/area       cjp=   0.    f/pj   

   4*** temperature effect parameters ***
     tlev=   0.               tlevc=   0.                 tcv=   0.    v/deg k
      trs=   0.    /deg         cta=   0.    /deg         ctp=   0.    /deg   
      xti=   3.00            xtitun=   3.00               keg=   1.00         
       eg=   1.11  ev          gap1= 702.00u  ev/deg     gap2=   1.11k  deg   
     ttt1=   0.    /deg        ttt2=   0.    /deg2        tm1=   0.    /deg   
      tm2=   0.    /deg2        tpb=   0.    v/deg k     tphp=   0.    v/deg k
     tref=  25.00   deg c 

   5*** noise parameters ***
       kf=   0.                  af=   1.00         

   ***  level   1  model parameters  ***

    level=   1.00                is=   1.00u amps         jsw=   0.    amps   
        n=  21.00               nbv=  21.00                ik=   0.    amp    
     area=   1.00                pj=   0.                 ikr=   0.    amp    
    expli=   0.    amps      explir=   0.    amps        jtun=   0.    amps   
   jtunsw=   0.    amps        ntun=  30.00         
  
 ********************************************************
 *** common model parameters model name:   0:diode21_****
 ********************************************************

     names  values   units     names  values   units     names  values   units
     -----  ------   -----     -----  ------   -----     -----  ------   -----

   1*** dc breakdown parameters ***
       vb=   0.    volts        ibv=   1.00m amps   

   2*** parasitic resistance parameters ***
       rs=   0.    ohms   

   3*** capacitance parameters ***
       fc= 500.00m              fcs= 500.00m                m= 500.00m        
     mjsw= 330.00m               pb= 800.00m volts        php= 800.00m volts  
       tt=   0.    secs         cjo=   0.    f/area       cjp=   0.    f/pj   

   4*** temperature effect parameters ***
     tlev=   0.               tlevc=   0.                 tcv=   0.    v/deg k
      trs=   0.    /deg         cta=   0.    /deg         ctp=   0.    /deg   
      xti=   3.00            xtitun=   3.00               keg=   1.00         
       eg=   1.11  ev          gap1= 702.00u  ev/deg     gap2=   1.11k  deg   
     ttt1=   0.    /deg        ttt2=   0.    /deg2        tm1=   0.    /deg   
      tm2=   0.    /deg2        tpb=   0.    v/deg k     tphp=   0.    v/deg k
     tref=  25.00   deg c 

   5*** noise parameters ***
       kf=   0.                  af=   1.00         

   ***  level   1  model parameters  ***

    level=   1.00                is=   1.00u amps         jsw=   0.    amps   
        n=   1.50               nbv=   1.50                ik=   0.    amp    
     area=   1.00                pj=   0.                 ikr=   0.    amp    
    expli=   0.    amps      explir=   0.    amps        jtun=   0.    amps   
   jtunsw=   0.    amps        ntun=  30.00         
  
 ********************************************************
 *** common model parameters model name:   0:diode_bp****
 ********************************************************

     names  values   units     names  values   units     names  values   units
     -----  ------   -----     -----  ------   -----     -----  ------   -----

   1*** dc breakdown parameters ***
       vb=   0.    volts        ibv=   1.00m amps   

   2*** parasitic resistance parameters ***
       rs=   0.    ohms   

   3*** capacitance parameters ***
       fc= 500.00m              fcs= 500.00m                m= 500.00m        
     mjsw= 330.00m               pb= 800.00m volts        php= 800.00m volts  
       tt=   0.    secs         cjo=   0.    f/area       cjp=   0.    f/pj   

   4*** temperature effect parameters ***
     tlev=   0.               tlevc=   0.                 tcv=   0.    v/deg k
      trs=   0.    /deg         cta=   0.    /deg         ctp=   0.    /deg   
      xti=   3.00            xtitun=   3.00               keg=   1.00         
       eg=   1.11  ev          gap1= 702.00u  ev/deg     gap2=   1.11k  deg   
     ttt1=   0.    /deg        ttt2=   0.    /deg2        tm1=   0.    /deg   
      tm2=   0.    /deg2        tpb=   0.    v/deg k     tphp=   0.    v/deg k
     tref=  25.00   deg c 

   5*** noise parameters ***
       kf=   0.                  af=   1.00         

   ***  level   1  model parameters  ***

    level=   1.00                is=  10.00u amps         jsw=   0.    amps   
        n=   1.00               nbv=   1.00                ik=   0.    amp    
     area=   1.00                pj=   0.                 ikr=   0.    amp    
    expli=   0.    amps      explir=   0.    amps        jtun=   0.    amps   
   jtunsw=   0.    amps        ntun=  30.00         
  
 ********************************************************
 *** common model parameters model name:   0:diode112****
 ********************************************************

     names  values   units     names  values   units     names  values   units
     -----  ------   -----     -----  ------   -----     -----  ------   -----

   1*** dc breakdown parameters ***
       vb=   0.    volts        ibv=   1.00m amps   

   2*** parasitic resistance parameters ***
       rs=   0.    ohms   

   3*** capacitance parameters ***
       fc= 500.00m              fcs= 500.00m                m= 500.00m        
     mjsw= 330.00m               pb= 800.00m volts        php= 800.00m volts  
       tt=   0.    secs         cjo=   0.    f/area       cjp=   0.    f/pj   

   4*** temperature effect parameters ***
     tlev=   0.               tlevc=   0.                 tcv=   0.    v/deg k
      trs=   0.    /deg         cta=   0.    /deg         ctp=   0.    /deg   
      xti=   3.00            xtitun=   3.00               keg=   1.00         
       eg=   1.11  ev          gap1= 702.00u  ev/deg     gap2=   1.11k  deg   
     ttt1=   0.    /deg        ttt2=   0.    /deg2        tm1=   0.    /deg   
      tm2=   0.    /deg2        tpb=   0.    v/deg k     tphp=   0.    v/deg k
     tref=  25.00   deg c 

   5*** noise parameters ***
       kf=   0.                  af=   1.00         

   ***  level   1  model parameters  ***

    level=   1.00                is=   1.00u amps         jsw=   0.    amps   
        n=  18.00               nbv=  18.00                ik=   0.    amp    
     area=   1.00                pj=   0.                 ikr=   0.    amp    
    expli=   0.    amps      explir=   0.    amps        jtun=   0.    amps   
   jtunsw=   0.    amps        ntun=  30.00         
  
 ********************************************************
 *** common model parameters model name:   0:diode12_****
 ********************************************************

     names  values   units     names  values   units     names  values   units
     -----  ------   -----     -----  ------   -----     -----  ------   -----

   1*** dc breakdown parameters ***
       vb=   0.    volts        ibv=   1.00m amps   

   2*** parasitic resistance parameters ***
       rs=   0.    ohms   

   3*** capacitance parameters ***
       fc= 500.00m              fcs= 500.00m                m= 500.00m        
     mjsw= 330.00m               pb= 800.00m volts        php= 800.00m volts  
       tt=   0.    secs         cjo=   0.    f/area       cjp=   0.    f/pj   

   4*** temperature effect parameters ***
     tlev=   0.               tlevc=   0.                 tcv=   0.    v/deg k
      trs=   0.    /deg         cta=   0.    /deg         ctp=   0.    /deg   
      xti=   3.00            xtitun=   3.00               keg=   1.00         
       eg=   1.11  ev          gap1= 702.00u  ev/deg     gap2=   1.11k  deg   
     ttt1=   0.    /deg        ttt2=   0.    /deg2        tm1=   0.    /deg   
      tm2=   0.    /deg2        tpb=   0.    v/deg k     tphp=   0.    v/deg k
     tref=  25.00   deg c 

   5*** noise parameters ***
       kf=   0.                  af=   1.00         

   ***  level   1  model parameters  ***

    level=   1.00                is=   1.00u amps         jsw=   0.    amps   
        n=   4.50               nbv=   4.50                ik=   0.    amp    
     area=   1.00                pj=   0.                 ikr=   0.    amp    
    expli=   0.    amps      explir=   0.    amps        jtun=   0.    amps   
   jtunsw=   0.    amps        ntun=  30.00         
  
 ********************************************************
 *** common model parameters model name:   0:diode_bp****
 ********************************************************

     names  values   units     names  values   units     names  values   units
     -----  ------   -----     -----  ------   -----     -----  ------   -----

   1*** dc breakdown parameters ***
       vb=   0.    volts        ibv=   1.00m amps   

   2*** parasitic resistance parameters ***
       rs=   0.    ohms   

   3*** capacitance parameters ***
       fc= 500.00m              fcs= 500.00m                m= 500.00m        
     mjsw= 330.00m               pb= 800.00m volts        php= 800.00m volts  
       tt=   0.    secs         cjo=   0.    f/area       cjp=   0.    f/pj   

   4*** temperature effect parameters ***
     tlev=   0.               tlevc=   0.                 tcv=   0.    v/deg k
      trs=   0.    /deg         cta=   0.    /deg         ctp=   0.    /deg   
      xti=   3.00            xtitun=   3.00               keg=   1.00         
       eg=   1.11  ev          gap1= 702.00u  ev/deg     gap2=   1.11k  deg   
     ttt1=   0.    /deg        ttt2=   0.    /deg2        tm1=   0.    /deg   
      tm2=   0.    /deg2        tpb=   0.    v/deg k     tphp=   0.    v/deg k
     tref=  25.00   deg c 

   5*** noise parameters ***
       kf=   0.                  af=   1.00         

   ***  level   1  model parameters  ***

    level=   1.00                is=  10.00u amps         jsw=   0.    amps   
        n=   1.00               nbv=   1.00                ik=   0.    amp    
     area=   1.00                pj=   0.                 ikr=   0.    amp    
    expli=   0.    amps      explir=   0.    amps        jtun=   0.    amps   
   jtunsw=   0.    amps        ntun=  30.00         
  
 ********************************************************
 *** common model parameters model name:   0:diode122****
 ********************************************************

     names  values   units     names  values   units     names  values   units
     -----  ------   -----     -----  ------   -----     -----  ------   -----

   1*** dc breakdown parameters ***
       vb=   0.    volts        ibv=   1.00m amps   

   2*** parasitic resistance parameters ***
       rs=   0.    ohms   

   3*** capacitance parameters ***
       fc= 500.00m              fcs= 500.00m                m= 500.00m        
     mjsw= 330.00m               pb= 800.00m volts        php= 800.00m volts  
       tt=   0.    secs         cjo=   0.    f/area       cjp=   0.    f/pj   

   4*** temperature effect parameters ***
     tlev=   0.               tlevc=   0.                 tcv=   0.    v/deg k
      trs=   0.    /deg         cta=   0.    /deg         ctp=   0.    /deg   
      xti=   3.00            xtitun=   3.00               keg=   1.00         
       eg=   1.11  ev          gap1= 702.00u  ev/deg     gap2=   1.11k  deg   
     ttt1=   0.    /deg        ttt2=   0.    /deg2        tm1=   0.    /deg   
      tm2=   0.    /deg2        tpb=   0.    v/deg k     tphp=   0.    v/deg k
     tref=  25.00   deg c 

   5*** noise parameters ***
       kf=   0.                  af=   1.00         

   ***  level   1  model parameters  ***

    level=   1.00                is=   1.00u amps         jsw=   0.    amps   
        n=  21.00               nbv=  21.00                ik=   0.    amp    
     area=   1.00                pj=   0.                 ikr=   0.    amp    
    expli=   0.    amps      explir=   0.    amps        jtun=   0.    amps   
   jtunsw=   0.    amps        ntun=  30.00         
  
 ********************************************************
 *** common model parameters model name:   0:diode22_****
 ********************************************************

     names  values   units     names  values   units     names  values   units
     -----  ------   -----     -----  ------   -----     -----  ------   -----

   1*** dc breakdown parameters ***
       vb=   0.    volts        ibv=   1.00m amps   

   2*** parasitic resistance parameters ***
       rs=   0.    ohms   

   3*** capacitance parameters ***
       fc= 500.00m              fcs= 500.00m                m= 500.00m        
     mjsw= 330.00m               pb= 800.00m volts        php= 800.00m volts  
       tt=   0.    secs         cjo=   0.    f/area       cjp=   0.    f/pj   

   4*** temperature effect parameters ***
     tlev=   0.               tlevc=   0.                 tcv=   0.    v/deg k
      trs=   0.    /deg         cta=   0.    /deg         ctp=   0.    /deg   
      xti=   3.00            xtitun=   3.00               keg=   1.00         
       eg=   1.11  ev          gap1= 702.00u  ev/deg     gap2=   1.11k  deg   
     ttt1=   0.    /deg        ttt2=   0.    /deg2        tm1=   0.    /deg   
      tm2=   0.    /deg2        tpb=   0.    v/deg k     tphp=   0.    v/deg k
     tref=  25.00   deg c 

   5*** noise parameters ***
       kf=   0.                  af=   1.00         

   ***  level   1  model parameters  ***

    level=   1.00                is=   1.00u amps         jsw=   0.    amps   
        n=   1.50               nbv=   1.50                ik=   0.    amp    
     area=   1.00                pj=   0.                 ikr=   0.    amp    
    expli=   0.    amps      explir=   0.    amps        jtun=   0.    amps   
   jtunsw=   0.    amps        ntun=  30.00         
  
 ********************************************************
 *** common model parameters model name:   0:diode_bp****
 ********************************************************

     names  values   units     names  values   units     names  values   units
     -----  ------   -----     -----  ------   -----     -----  ------   -----

   1*** dc breakdown parameters ***
       vb=   0.    volts        ibv=   1.00m amps   

   2*** parasitic resistance parameters ***
       rs=   0.    ohms   

   3*** capacitance parameters ***
       fc= 500.00m              fcs= 500.00m                m= 500.00m        
     mjsw= 330.00m               pb= 800.00m volts        php= 800.00m volts  
       tt=   0.    secs         cjo=   0.    f/area       cjp=   0.    f/pj   

   4*** temperature effect parameters ***
     tlev=   0.               tlevc=   0.                 tcv=   0.    v/deg k
      trs=   0.    /deg         cta=   0.    /deg         ctp=   0.    /deg   
      xti=   3.00            xtitun=   3.00               keg=   1.00         
       eg=   1.11  ev          gap1= 702.00u  ev/deg     gap2=   1.11k  deg   
     ttt1=   0.    /deg        ttt2=   0.    /deg2        tm1=   0.    /deg   
      tm2=   0.    /deg2        tpb=   0.    v/deg k     tphp=   0.    v/deg k
     tref=  25.00   deg c 

   5*** noise parameters ***
       kf=   0.                  af=   1.00         

   ***  level   1  model parameters  ***

    level=   1.00                is=  10.00u amps         jsw=   0.    amps   
        n=   1.00               nbv=   1.00                ik=   0.    amp    
     area=   1.00                pj=   0.                 ikr=   0.    amp    
    expli=   0.    amps      explir=   0.    amps        jtun=   0.    amps   
   jtunsw=   0.    amps        ntun=  30.00         
  
 ********************************************************
 *** common model parameters model name:   0:diode113****
 ********************************************************

     names  values   units     names  values   units     names  values   units
     -----  ------   -----     -----  ------   -----     -----  ------   -----

   1*** dc breakdown parameters ***
       vb=   0.    volts        ibv=   1.00m amps   

   2*** parasitic resistance parameters ***
       rs=   0.    ohms   

   3*** capacitance parameters ***
       fc= 500.00m              fcs= 500.00m                m= 500.00m        
     mjsw= 330.00m               pb= 800.00m volts        php= 800.00m volts  
       tt=   0.    secs         cjo=   0.    f/area       cjp=   0.    f/pj   

   4*** temperature effect parameters ***
     tlev=   0.               tlevc=   0.                 tcv=   0.    v/deg k
      trs=   0.    /deg         cta=   0.    /deg         ctp=   0.    /deg   
      xti=   3.00            xtitun=   3.00               keg=   1.00         
       eg=   1.11  ev          gap1= 702.00u  ev/deg     gap2=   1.11k  deg   
     ttt1=   0.    /deg        ttt2=   0.    /deg2        tm1=   0.    /deg   
      tm2=   0.    /deg2        tpb=   0.    v/deg k     tphp=   0.    v/deg k
     tref=  25.00   deg c 

   5*** noise parameters ***
       kf=   0.                  af=   1.00         

   ***  level   1  model parameters  ***

    level=   1.00                is=   1.00u amps         jsw=   0.    amps   
        n=  16.50               nbv=  16.50                ik=   0.    amp    
     area=   1.00                pj=   0.                 ikr=   0.    amp    
    expli=   0.    amps      explir=   0.    amps        jtun=   0.    amps   
   jtunsw=   0.    amps        ntun=  30.00         
  
 ********************************************************
 *** common model parameters model name:   0:diode13_****
 ********************************************************

     names  values   units     names  values   units     names  values   units
     -----  ------   -----     -----  ------   -----     -----  ------   -----

   1*** dc breakdown parameters ***
       vb=   0.    volts        ibv=   1.00m amps   

   2*** parasitic resistance parameters ***
       rs=   0.    ohms   

   3*** capacitance parameters ***
       fc= 500.00m              fcs= 500.00m                m= 500.00m        
     mjsw= 330.00m               pb= 800.00m volts        php= 800.00m volts  
       tt=   0.    secs         cjo=   0.    f/area       cjp=   0.    f/pj   

   4*** temperature effect parameters ***
     tlev=   0.               tlevc=   0.                 tcv=   0.    v/deg k
      trs=   0.    /deg         cta=   0.    /deg         ctp=   0.    /deg   
      xti=   3.00            xtitun=   3.00               keg=   1.00         
       eg=   1.11  ev          gap1= 702.00u  ev/deg     gap2=   1.11k  deg   
     ttt1=   0.    /deg        ttt2=   0.    /deg2        tm1=   0.    /deg   
      tm2=   0.    /deg2        tpb=   0.    v/deg k     tphp=   0.    v/deg k
     tref=  25.00   deg c 

   5*** noise parameters ***
       kf=   0.                  af=   1.00         

   ***  level   1  model parameters  ***

    level=   1.00                is=   1.00u amps         jsw=   0.    amps   
        n=   6.00               nbv=   6.00                ik=   0.    amp    
     area=   1.00                pj=   0.                 ikr=   0.    amp    
    expli=   0.    amps      explir=   0.    amps        jtun=   0.    amps   
   jtunsw=   0.    amps        ntun=  30.00         
  
 ********************************************************
 *** common model parameters model name:   0:diode_bp****
 ********************************************************

     names  values   units     names  values   units     names  values   units
     -----  ------   -----     -----  ------   -----     -----  ------   -----

   1*** dc breakdown parameters ***
       vb=   0.    volts        ibv=   1.00m amps   

   2*** parasitic resistance parameters ***
       rs=   0.    ohms   

   3*** capacitance parameters ***
       fc= 500.00m              fcs= 500.00m                m= 500.00m        
     mjsw= 330.00m               pb= 800.00m volts        php= 800.00m volts  
       tt=   0.    secs         cjo=   0.    f/area       cjp=   0.    f/pj   

   4*** temperature effect parameters ***
     tlev=   0.               tlevc=   0.                 tcv=   0.    v/deg k
      trs=   0.    /deg         cta=   0.    /deg         ctp=   0.    /deg   
      xti=   3.00            xtitun=   3.00               keg=   1.00         
       eg=   1.11  ev          gap1= 702.00u  ev/deg     gap2=   1.11k  deg   
     ttt1=   0.    /deg        ttt2=   0.    /deg2        tm1=   0.    /deg   
      tm2=   0.    /deg2        tpb=   0.    v/deg k     tphp=   0.    v/deg k
     tref=  25.00   deg c 

   5*** noise parameters ***
       kf=   0.                  af=   1.00         

   ***  level   1  model parameters  ***

    level=   1.00                is=  10.00u amps         jsw=   0.    amps   
        n=   1.00               nbv=   1.00                ik=   0.    amp    
     area=   1.00                pj=   0.                 ikr=   0.    amp    
    expli=   0.    amps      explir=   0.    amps        jtun=   0.    amps   
   jtunsw=   0.    amps        ntun=  30.00         
  
 ********************************************************
 *** common model parameters model name:   0:diode132****
 ********************************************************

     names  values   units     names  values   units     names  values   units
     -----  ------   -----     -----  ------   -----     -----  ------   -----

   1*** dc breakdown parameters ***
       vb=   0.    volts        ibv=   1.00m amps   

   2*** parasitic resistance parameters ***
       rs=   0.    ohms   

   3*** capacitance parameters ***
       fc= 500.00m              fcs= 500.00m                m= 500.00m        
     mjsw= 330.00m               pb= 800.00m volts        php= 800.00m volts  
       tt=   0.    secs         cjo=   0.    f/area       cjp=   0.    f/pj   

   4*** temperature effect parameters ***
     tlev=   0.               tlevc=   0.                 tcv=   0.    v/deg k
      trs=   0.    /deg         cta=   0.    /deg         ctp=   0.    /deg   
      xti=   3.00            xtitun=   3.00               keg=   1.00         
       eg=   1.11  ev          gap1= 702.00u  ev/deg     gap2=   1.11k  deg   
     ttt1=   0.    /deg        ttt2=   0.    /deg2        tm1=   0.    /deg   
      tm2=   0.    /deg2        tpb=   0.    v/deg k     tphp=   0.    v/deg k
     tref=  25.00   deg c 

   5*** noise parameters ***
       kf=   0.                  af=   1.00         

   ***  level   1  model parameters  ***

    level=   1.00                is=   1.00u amps         jsw=   0.    amps   
        n=  21.00               nbv=  21.00                ik=   0.    amp    
     area=   1.00                pj=   0.                 ikr=   0.    amp    
    expli=   0.    amps      explir=   0.    amps        jtun=   0.    amps   
   jtunsw=   0.    amps        ntun=  30.00         
  
 ********************************************************
 *** common model parameters model name:   0:diode23_****
 ********************************************************

     names  values   units     names  values   units     names  values   units
     -----  ------   -----     -----  ------   -----     -----  ------   -----

   1*** dc breakdown parameters ***
       vb=   0.    volts        ibv=   1.00m amps   

   2*** parasitic resistance parameters ***
       rs=   0.    ohms   

   3*** capacitance parameters ***
       fc= 500.00m              fcs= 500.00m                m= 500.00m        
     mjsw= 330.00m               pb= 800.00m volts        php= 800.00m volts  
       tt=   0.    secs         cjo=   0.    f/area       cjp=   0.    f/pj   

   4*** temperature effect parameters ***
     tlev=   0.               tlevc=   0.                 tcv=   0.    v/deg k
      trs=   0.    /deg         cta=   0.    /deg         ctp=   0.    /deg   
      xti=   3.00            xtitun=   3.00               keg=   1.00         
       eg=   1.11  ev          gap1= 702.00u  ev/deg     gap2=   1.11k  deg   
     ttt1=   0.    /deg        ttt2=   0.    /deg2        tm1=   0.    /deg   
      tm2=   0.    /deg2        tpb=   0.    v/deg k     tphp=   0.    v/deg k
     tref=  25.00   deg c 

   5*** noise parameters ***
       kf=   0.                  af=   1.00         

   ***  level   1  model parameters  ***

    level=   1.00                is=   1.00u amps         jsw=   0.    amps   
        n=   1.50               nbv=   1.50                ik=   0.    amp    
     area=   1.00                pj=   0.                 ikr=   0.    amp    
    expli=   0.    amps      explir=   0.    amps        jtun=   0.    amps   
   jtunsw=   0.    amps        ntun=  30.00         
  
 ********************************************************
 *** common model parameters model name:   0:diode_bp****
 ********************************************************

     names  values   units     names  values   units     names  values   units
     -----  ------   -----     -----  ------   -----     -----  ------   -----

   1*** dc breakdown parameters ***
       vb=   0.    volts        ibv=   1.00m amps   

   2*** parasitic resistance parameters ***
       rs=   0.    ohms   

   3*** capacitance parameters ***
       fc= 500.00m              fcs= 500.00m                m= 500.00m        
     mjsw= 330.00m               pb= 800.00m volts        php= 800.00m volts  
       tt=   0.    secs         cjo=   0.    f/area       cjp=   0.    f/pj   

   4*** temperature effect parameters ***
     tlev=   0.               tlevc=   0.                 tcv=   0.    v/deg k
      trs=   0.    /deg         cta=   0.    /deg         ctp=   0.    /deg   
      xti=   3.00            xtitun=   3.00               keg=   1.00         
       eg=   1.11  ev          gap1= 702.00u  ev/deg     gap2=   1.11k  deg   
     ttt1=   0.    /deg        ttt2=   0.    /deg2        tm1=   0.    /deg   
      tm2=   0.    /deg2        tpb=   0.    v/deg k     tphp=   0.    v/deg k
     tref=  25.00   deg c 

   5*** noise parameters ***
       kf=   0.                  af=   1.00         

   ***  level   1  model parameters  ***

    level=   1.00                is=  10.00u amps         jsw=   0.    amps   
        n=   1.00               nbv=   1.00                ik=   0.    amp    
     area=   1.00                pj=   0.                 ikr=   0.    amp    
    expli=   0.    amps      explir=   0.    amps        jtun=   0.    amps   
   jtunsw=   0.    amps        ntun=  30.00         
  
 ********************************************************
 *** common model parameters model name:   0:diode114****
 ********************************************************

     names  values   units     names  values   units     names  values   units
     -----  ------   -----     -----  ------   -----     -----  ------   -----

   1*** dc breakdown parameters ***
       vb=   0.    volts        ibv=   1.00m amps   

   2*** parasitic resistance parameters ***
       rs=   0.    ohms   

   3*** capacitance parameters ***
       fc= 500.00m              fcs= 500.00m                m= 500.00m        
     mjsw= 330.00m               pb= 800.00m volts        php= 800.00m volts  
       tt=   0.    secs         cjo=   0.    f/area       cjp=   0.    f/pj   

   4*** temperature effect parameters ***
     tlev=   0.               tlevc=   0.                 tcv=   0.    v/deg k
      trs=   0.    /deg         cta=   0.    /deg         ctp=   0.    /deg   
      xti=   3.00            xtitun=   3.00               keg=   1.00         
       eg=   1.11  ev          gap1= 702.00u  ev/deg     gap2=   1.11k  deg   
     ttt1=   0.    /deg        ttt2=   0.    /deg2        tm1=   0.    /deg   
      tm2=   0.    /deg2        tpb=   0.    v/deg k     tphp=   0.    v/deg k
     tref=  25.00   deg c 

   5*** noise parameters ***
       kf=   0.                  af=   1.00         

   ***  level   1  model parameters  ***

    level=   1.00                is=   1.00u amps         jsw=   0.    amps   
        n=  16.50               nbv=  16.50                ik=   0.    amp    
     area=   1.00                pj=   0.                 ikr=   0.    amp    
    expli=   0.    amps      explir=   0.    amps        jtun=   0.    amps   
   jtunsw=   0.    amps        ntun=  30.00         
  
 ********************************************************
 *** common model parameters model name:   0:diode14_****
 ********************************************************

     names  values   units     names  values   units     names  values   units
     -----  ------   -----     -----  ------   -----     -----  ------   -----

   1*** dc breakdown parameters ***
       vb=   0.    volts        ibv=   1.00m amps   

   2*** parasitic resistance parameters ***
       rs=   0.    ohms   

   3*** capacitance parameters ***
       fc= 500.00m              fcs= 500.00m                m= 500.00m        
     mjsw= 330.00m               pb= 800.00m volts        php= 800.00m volts  
       tt=   0.    secs         cjo=   0.    f/area       cjp=   0.    f/pj   

   4*** temperature effect parameters ***
     tlev=   0.               tlevc=   0.                 tcv=   0.    v/deg k
      trs=   0.    /deg         cta=   0.    /deg         ctp=   0.    /deg   
      xti=   3.00            xtitun=   3.00               keg=   1.00         
       eg=   1.11  ev          gap1= 702.00u  ev/deg     gap2=   1.11k  deg   
     ttt1=   0.    /deg        ttt2=   0.    /deg2        tm1=   0.    /deg   
      tm2=   0.    /deg2        tpb=   0.    v/deg k     tphp=   0.    v/deg k
     tref=  25.00   deg c 

   5*** noise parameters ***
       kf=   0.                  af=   1.00         

   ***  level   1  model parameters  ***

    level=   1.00                is=   1.00u amps         jsw=   0.    amps   
        n=   6.00               nbv=   6.00                ik=   0.    amp    
     area=   1.00                pj=   0.                 ikr=   0.    amp    
    expli=   0.    amps      explir=   0.    amps        jtun=   0.    amps   
   jtunsw=   0.    amps        ntun=  30.00         
  
 ********************************************************
 *** common model parameters model name:   0:diode_bp****
 ********************************************************

     names  values   units     names  values   units     names  values   units
     -----  ------   -----     -----  ------   -----     -----  ------   -----

   1*** dc breakdown parameters ***
       vb=   0.    volts        ibv=   1.00m amps   

   2*** parasitic resistance parameters ***
       rs=   0.    ohms   

   3*** capacitance parameters ***
       fc= 500.00m              fcs= 500.00m                m= 500.00m        
     mjsw= 330.00m               pb= 800.00m volts        php= 800.00m volts  
       tt=   0.    secs         cjo=   0.    f/area       cjp=   0.    f/pj   

   4*** temperature effect parameters ***
     tlev=   0.               tlevc=   0.                 tcv=   0.    v/deg k
      trs=   0.    /deg         cta=   0.    /deg         ctp=   0.    /deg   
      xti=   3.00            xtitun=   3.00               keg=   1.00         
       eg=   1.11  ev          gap1= 702.00u  ev/deg     gap2=   1.11k  deg   
     ttt1=   0.    /deg        ttt2=   0.    /deg2        tm1=   0.    /deg   
      tm2=   0.    /deg2        tpb=   0.    v/deg k     tphp=   0.    v/deg k
     tref=  25.00   deg c 

   5*** noise parameters ***
       kf=   0.                  af=   1.00         

   ***  level   1  model parameters  ***

    level=   1.00                is=  10.00u amps         jsw=   0.    amps   
        n=   1.00               nbv=   1.00                ik=   0.    amp    
     area=   1.00                pj=   0.                 ikr=   0.    amp    
    expli=   0.    amps      explir=   0.    amps        jtun=   0.    amps   
   jtunsw=   0.    amps        ntun=  30.00         
  
 ********************************************************
 *** common model parameters model name:   0:diode142****
 ********************************************************

     names  values   units     names  values   units     names  values   units
     -----  ------   -----     -----  ------   -----     -----  ------   -----

   1*** dc breakdown parameters ***
       vb=   0.    volts        ibv=   1.00m amps   

   2*** parasitic resistance parameters ***
       rs=   0.    ohms   

   3*** capacitance parameters ***
       fc= 500.00m              fcs= 500.00m                m= 500.00m        
     mjsw= 330.00m               pb= 800.00m volts        php= 800.00m volts  
       tt=   0.    secs         cjo=   0.    f/area       cjp=   0.    f/pj   

   4*** temperature effect parameters ***
     tlev=   0.               tlevc=   0.                 tcv=   0.    v/deg k
      trs=   0.    /deg         cta=   0.    /deg         ctp=   0.    /deg   
      xti=   3.00            xtitun=   3.00               keg=   1.00         
       eg=   1.11  ev          gap1= 702.00u  ev/deg     gap2=   1.11k  deg   
     ttt1=   0.    /deg        ttt2=   0.    /deg2        tm1=   0.    /deg   
      tm2=   0.    /deg2        tpb=   0.    v/deg k     tphp=   0.    v/deg k
     tref=  25.00   deg c 

   5*** noise parameters ***
       kf=   0.                  af=   1.00         

   ***  level   1  model parameters  ***

    level=   1.00                is=   1.00u amps         jsw=   0.    amps   
        n=  21.00               nbv=  21.00                ik=   0.    amp    
     area=   1.00                pj=   0.                 ikr=   0.    amp    
    expli=   0.    amps      explir=   0.    amps        jtun=   0.    amps   
   jtunsw=   0.    amps        ntun=  30.00         
  
 ********************************************************
 *** common model parameters model name:   0:diode24_****
 ********************************************************

     names  values   units     names  values   units     names  values   units
     -----  ------   -----     -----  ------   -----     -----  ------   -----

   1*** dc breakdown parameters ***
       vb=   0.    volts        ibv=   1.00m amps   

   2*** parasitic resistance parameters ***
       rs=   0.    ohms   

   3*** capacitance parameters ***
       fc= 500.00m              fcs= 500.00m                m= 500.00m        
     mjsw= 330.00m               pb= 800.00m volts        php= 800.00m volts  
       tt=   0.    secs         cjo=   0.    f/area       cjp=   0.    f/pj   

   4*** temperature effect parameters ***
     tlev=   0.               tlevc=   0.                 tcv=   0.    v/deg k
      trs=   0.    /deg         cta=   0.    /deg         ctp=   0.    /deg   
      xti=   3.00            xtitun=   3.00               keg=   1.00         
       eg=   1.11  ev          gap1= 702.00u  ev/deg     gap2=   1.11k  deg   
     ttt1=   0.    /deg        ttt2=   0.    /deg2        tm1=   0.    /deg   
      tm2=   0.    /deg2        tpb=   0.    v/deg k     tphp=   0.    v/deg k
     tref=  25.00   deg c 

   5*** noise parameters ***
       kf=   0.                  af=   1.00         

   ***  level   1  model parameters  ***

    level=   1.00                is=   1.00u amps         jsw=   0.    amps   
        n=   1.50               nbv=   1.50                ik=   0.    amp    
     area=   1.00                pj=   0.                 ikr=   0.    amp    
    expli=   0.    amps      explir=   0.    amps        jtun=   0.    amps   
   jtunsw=   0.    amps        ntun=  30.00         
  
 ********************************************************
 *** common model parameters model name:   0:diode_bp****
 ********************************************************

     names  values   units     names  values   units     names  values   units
     -----  ------   -----     -----  ------   -----     -----  ------   -----

   1*** dc breakdown parameters ***
       vb=   0.    volts        ibv=   1.00m amps   

   2*** parasitic resistance parameters ***
       rs=   0.    ohms   

   3*** capacitance parameters ***
       fc= 500.00m              fcs= 500.00m                m= 500.00m        
     mjsw= 330.00m               pb= 800.00m volts        php= 800.00m volts  
       tt=   0.    secs         cjo=   0.    f/area       cjp=   0.    f/pj   

   4*** temperature effect parameters ***
     tlev=   0.               tlevc=   0.                 tcv=   0.    v/deg k
      trs=   0.    /deg         cta=   0.    /deg         ctp=   0.    /deg   
      xti=   3.00            xtitun=   3.00               keg=   1.00         
       eg=   1.11  ev          gap1= 702.00u  ev/deg     gap2=   1.11k  deg   
     ttt1=   0.    /deg        ttt2=   0.    /deg2        tm1=   0.    /deg   
      tm2=   0.    /deg2        tpb=   0.    v/deg k     tphp=   0.    v/deg k
     tref=  25.00   deg c 

   5*** noise parameters ***
       kf=   0.                  af=   1.00         

   ***  level   1  model parameters  ***

    level=   1.00                is=  10.00u amps         jsw=   0.    amps   
        n=   1.00               nbv=   1.00                ik=   0.    amp    
     area=   1.00                pj=   0.                 ikr=   0.    amp    
    expli=   0.    amps      explir=   0.    amps        jtun=   0.    amps   
   jtunsw=   0.    amps        ntun=  30.00         
  
  **warning** (C:\Users\Administrator\Desktop\MultiLevel\cw2Model.sp:12) r11_111_2defined in subckt 0                resistance limited to   1.000E-05
 
      
 *****************************************************************
 ******  option summary
 ******
 runlvl  = 3         bypass  = 2         
 ******  
 ** 30 cascaded, 4 paralleled cells

  ******  dc transfer curves tnom=  25.000 temp=  25.000 *****
x

        volt    voltage      current    
                     1           vds    
    0.            0.           8.0060   
    5.00000m      5.0000m      8.0060   
   10.00000m     10.0000m      8.0060   
   15.00000m     15.0000m      8.0060   
   20.00000m     20.0000m      8.0060   
   25.00000m     25.0000m      8.0060   
   30.00000m     30.0000m      8.0059   
   35.00000m     35.0000m      8.0059   
   40.00000m     40.0000m      8.0059   
   45.00000m     45.0000m      8.0059   
   50.00000m     50.0000m      8.0059   
   55.00000m     55.0000m      8.0059   
   60.00000m     60.0000m      8.0059   
   65.00000m     65.0000m      8.0059   
   70.00000m     70.0000m      8.0059   
   75.00000m     75.0000m      8.0059   
   80.00000m     80.0000m      8.0059   
   85.00000m     85.0000m      8.0059   
   90.00000m     90.0000m      8.0059   
   95.00000m     95.0000m      8.0059   
  100.00000m    100.0000m      8.0059   
  105.00000m    105.0000m      8.0059   
  110.00000m    110.0000m      8.0059   
  115.00000m    115.0000m      8.0059   
  120.00000m    120.0000m      8.0059   
  125.00000m    125.0000m      8.0059   
  130.00000m    130.0000m      8.0059   
  135.00000m    135.0000m      8.0059   
  140.00000m    140.0000m      8.0059   
  145.00000m    145.0000m      8.0059   
  150.00000m    150.0000m      8.0059   
  155.00000m    155.0000m      8.0058   
  160.00000m    160.0000m      8.0058   
  165.00000m    165.0000m      8.0058   
  170.00000m    170.0000m      8.0058   
  175.00000m    175.0000m      8.0058   
  180.00000m    180.0000m      8.0058   
  185.00000m    185.0000m      8.0058   
  190.00000m    190.0000m      8.0058   
  195.00000m    195.0000m      8.0058   
  200.00000m    200.0000m      8.0058   
  205.00000m    205.0000m      8.0058   
  210.00000m    210.0000m      8.0058   
  215.00000m    215.0000m      8.0058   
  220.00000m    220.0000m      8.0058   
  225.00000m    225.0000m      8.0058   
  230.00000m    230.0000m      8.0058   
  235.00000m    235.0000m      8.0058   
  240.00000m    240.0000m      8.0058   
  245.00000m    245.0000m      8.0058   
  250.00000m    250.0000m      8.0058   
  255.00000m    255.0000m      8.0058   
  260.00000m    260.0000m      8.0058   
  265.00000m    265.0000m      8.0058   
  270.00000m    270.0000m      8.0058   
  275.00000m    275.0000m      8.0058   
  280.00000m    280.0000m      8.0058   
  285.00000m    285.0000m      8.0057   
  290.00000m    290.0000m      8.0057   
  295.00000m    295.0000m      8.0057   
  300.00000m    300.0000m      8.0057   
  305.00000m    305.0000m      8.0057   
  310.00000m    310.0000m      8.0057   
  315.00000m    315.0000m      8.0057   
  320.00000m    320.0000m      8.0057   
  325.00000m    325.0000m      8.0057   
  330.00000m    330.0000m      8.0057   
  335.00000m    335.0000m      8.0057   
  340.00000m    340.0000m      8.0057   
  345.00000m    345.0000m      8.0057   
  350.00000m    350.0000m      8.0057   
  355.00000m    355.0000m      8.0057   
  360.00000m    360.0000m      8.0057   
  365.00000m    365.0000m      8.0057   
  370.00000m    370.0000m      8.0057   
  375.00000m    375.0000m      8.0057   
  380.00000m    380.0000m      8.0057   
  385.00000m    385.0000m      8.0057   
  390.00000m    390.0000m      8.0057   
  395.00000m    395.0000m      8.0057   
  400.00000m    400.0000m      8.0057   
  405.00000m    405.0000m      8.0057   
  410.00000m    410.0000m      8.0057   
  415.00000m    415.0000m      8.0056   
  420.00000m    420.0000m      8.0056   
  425.00000m    425.0000m      8.0056   
  430.00000m    430.0000m      8.0056   
  435.00000m    435.0000m      8.0056   
  440.00000m    440.0000m      8.0056   
  445.00000m    445.0000m      8.0056   
  450.00000m    450.0000m      8.0056   
  455.00000m    455.0000m      8.0056   
  460.00000m    460.0000m      8.0056   
  465.00000m    465.0000m      8.0056   
  470.00000m    470.0000m      8.0056   
  475.00000m    475.0000m      8.0056   
  480.00000m    480.0000m      8.0056   
  485.00000m    485.0000m      8.0056   
  490.00000m    490.0000m      8.0056   
  495.00000m    495.0000m      8.0056   
  500.00000m    500.0000m      8.0056   
  505.00000m    505.0000m      8.0056   
  510.00000m    510.0000m      8.0056   
  515.00000m    515.0000m      8.0056   
  520.00000m    520.0000m      8.0056   
  525.00000m    525.0000m      8.0056   
  530.00000m    530.0000m      8.0056   
  535.00000m    535.0000m      8.0056   
  540.00000m    540.0000m      8.0056   
  545.00000m    545.0000m      8.0055   
  550.00000m    550.0000m      8.0055   
  555.00000m    555.0000m      8.0055   
  560.00000m    560.0000m      8.0055   
  565.00000m    565.0000m      8.0055   
  570.00000m    570.0000m      8.0055   
  575.00000m    575.0000m      8.0055   
  580.00000m    580.0000m      8.0055   
  585.00000m    585.0000m      8.0055   
  590.00000m    590.0000m      8.0055   
  595.00000m    595.0000m      8.0055   
  600.00000m    600.0000m      8.0055   
  605.00000m    605.0000m      8.0055   
  610.00000m    610.0000m      8.0055   
  615.00000m    615.0000m      8.0055   
  620.00000m    620.0000m      8.0055   
  625.00000m    625.0000m      8.0055   
  630.00000m    630.0000m      8.0055   
  635.00000m    635.0000m      8.0055   
  640.00000m    640.0000m      8.0055   
  645.00000m    645.0000m      8.0055   
  650.00000m    650.0000m      8.0055   
  655.00000m    655.0000m      8.0055   
  660.00000m    660.0000m      8.0055   
  665.00000m    665.0000m      8.0055   
  670.00000m    670.0000m      8.0055   
  675.00000m    675.0000m      8.0054   
  680.00000m    680.0000m      8.0054   
  685.00000m    685.0000m      8.0054   
  690.00000m    690.0000m      8.0054   
  695.00000m    695.0000m      8.0054   
  700.00000m    700.0000m      8.0054   
  705.00000m    705.0000m      8.0054   
  710.00000m    710.0000m      8.0054   
  715.00000m    715.0000m      8.0054   
  720.00000m    720.0000m      8.0054   
  725.00000m    725.0000m      8.0054   
  730.00000m    730.0000m      8.0054   
  735.00000m    735.0000m      8.0054   
  740.00000m    740.0000m      8.0054   
  745.00000m    745.0000m      8.0054   
  750.00000m    750.0000m      8.0054   
  755.00000m    755.0000m      8.0054   
  760.00000m    760.0000m      8.0054   
  765.00000m    765.0000m      8.0054   
  770.00000m    770.0000m      8.0054   
  775.00000m    775.0000m      8.0054   
  780.00000m    780.0000m      8.0054   
  785.00000m    785.0000m      8.0054   
  790.00000m    790.0000m      8.0054   
  795.00000m    795.0000m      8.0054   
  800.00000m    800.0000m      8.0054   
  805.00000m    805.0000m      8.0053   
  810.00000m    810.0000m      8.0053   
  815.00000m    815.0000m      8.0053   
  820.00000m    820.0000m      8.0053   
  825.00000m    825.0000m      8.0053   
  830.00000m    830.0000m      8.0053   
  835.00000m    835.0000m      8.0053   
  840.00000m    840.0000m      8.0053   
  845.00000m    845.0000m      8.0053   
  850.00000m    850.0000m      8.0053   
  855.00000m    855.0000m      8.0053   
  860.00000m    860.0000m      8.0053   
  865.00000m    865.0000m      8.0053   
  870.00000m    870.0000m      8.0053   
  875.00000m    875.0000m      8.0053   
  880.00000m    880.0000m      8.0053   
  885.00000m    885.0000m      8.0053   
  890.00000m    890.0000m      8.0053   
  895.00000m    895.0000m      8.0053   
  900.00000m    900.0000m      8.0053   
  905.00000m    905.0000m      8.0053   
  910.00000m    910.0000m      8.0053   
  915.00000m    915.0000m      8.0053   
  920.00000m    920.0000m      8.0053   
  925.00000m    925.0000m      8.0053   
  930.00000m    930.0000m      8.0053   
  935.00000m    935.0000m      8.0053   
  940.00000m    940.0000m      8.0052   
  945.00000m    945.0000m      8.0052   
  950.00000m    950.0000m      8.0052   
  955.00000m    955.0000m      8.0052   
  960.00000m    960.0000m      8.0052   
  965.00000m    965.0000m      8.0052   
  970.00000m    970.0000m      8.0052   
  975.00000m    975.0000m      8.0052   
  980.00000m    980.0000m      8.0052   
  985.00000m    985.0000m      8.0052   
  990.00000m    990.0000m      8.0052   
  995.00000m    995.0000m      8.0052   
    1.00000       1.0000       8.0052   
    1.00500       1.0050       8.0052   
    1.01000       1.0100       8.0052   
    1.01500       1.0150       8.0052   
    1.02000       1.0200       8.0052   
    1.02500       1.0250       8.0052   
    1.03000       1.0300       8.0052   
    1.03500       1.0350       8.0052   
    1.04000       1.0400       8.0052   
    1.04500       1.0450       8.0052   
    1.05000       1.0500       8.0052   
    1.05500       1.0550       8.0052   
    1.06000       1.0600       8.0052   
    1.06500       1.0650       8.0052   
    1.07000       1.0700       8.0052   
    1.07500       1.0750       8.0052   
    1.08000       1.0800       8.0052   
    1.08500       1.0850       8.0051   
    1.09000       1.0900       8.0051   
    1.09500       1.0950       8.0051   
    1.10000       1.1000       8.0051   
    1.10500       1.1050       8.0051   
    1.11000       1.1100       8.0051   
    1.11500       1.1150       8.0051   
    1.12000       1.1200       8.0051   
    1.12500       1.1250       8.0051   
    1.13000       1.1300       8.0051   
    1.13500       1.1350       8.0051   
    1.14000       1.1400       8.0051   
    1.14500       1.1450       8.0051   
    1.15000       1.1500       8.0051   
    1.15500       1.1550       8.0051   
    1.16000       1.1600       8.0051   
    1.16500       1.1650       8.0051   
    1.17000       1.1700       8.0051   
    1.17500       1.1750       8.0051   
    1.18000       1.1800       8.0051   
    1.18500       1.1850       8.0051   
    1.19000       1.1900       8.0051   
    1.19500       1.1950       8.0051   
    1.20000       1.2000       8.0051   
    1.20500       1.2050       8.0051   
    1.21000       1.2100       8.0051   
    1.21500       1.2150       8.0051   
    1.22000       1.2200       8.0051   
    1.22500       1.2250       8.0051   
    1.23000       1.2300       8.0051   
    1.23500       1.2350       8.0051   
    1.24000       1.2400       8.0051   
    1.24500       1.2450       8.0050   
    1.25000       1.2500       8.0050   
    1.25500       1.2550       8.0050   
    1.26000       1.2600       8.0050   
    1.26500       1.2650       8.0050   
    1.27000       1.2700       8.0050   
    1.27500       1.2750       8.0050   
    1.28000       1.2800       8.0050   
    1.28500       1.2850       8.0050   
    1.29000       1.2900       8.0050   
    1.29500       1.2950       8.0050   
    1.30000       1.3000       8.0050   
    1.30500       1.3050       8.0050   
    1.31000       1.3100       8.0050   
    1.31500       1.3150       8.0050   
    1.32000       1.3200       8.0050   
    1.32500       1.3250       8.0050   
    1.33000       1.3300       8.0050   
    1.33500       1.3350       8.0050   
    1.34000       1.3400       8.0050   
    1.34500       1.3450       8.0050   
    1.35000       1.3500       8.0050   
    1.35500       1.3550       8.0050   
    1.36000       1.3600       8.0050   
    1.36500       1.3650       8.0050   
    1.37000       1.3700       8.0050   
    1.37500       1.3750       8.0050   
    1.38000       1.3800       8.0050   
    1.38500       1.3850       8.0050   
    1.39000       1.3900       8.0050   
    1.39500       1.3950       8.0050   
    1.40000       1.4000       8.0050   
    1.40500       1.4050       8.0050   
    1.41000       1.4100       8.0050   
    1.41500       1.4150       8.0050   
    1.42000       1.4200       8.0049   
    1.42500       1.4250       8.0049   
    1.43000       1.4300       8.0049   
    1.43500       1.4350       8.0049   
    1.44000       1.4400       8.0049   
    1.44500       1.4450       8.0049   
    1.45000       1.4500       8.0049   
    1.45500       1.4550       8.0049   
    1.46000       1.4600       8.0049   
    1.46500       1.4650       8.0049   
    1.47000       1.4700       8.0049   
    1.47500       1.4750       8.0049   
    1.48000       1.4800       8.0049   
    1.48500       1.4850       8.0049   
    1.49000       1.4900       8.0049   
    1.49500       1.4950       8.0049   
    1.50000       1.5000       8.0049   
    1.50500       1.5050       8.0049   
    1.51000       1.5100       8.0049   
    1.51500       1.5150       8.0049   
    1.52000       1.5200       8.0049   
    1.52500       1.5250       8.0049   
    1.53000       1.5300       8.0049   
    1.53500       1.5350       8.0049   
    1.54000       1.5400       8.0049   
    1.54500       1.5450       8.0049   
    1.55000       1.5500       8.0049   
    1.55500       1.5550       8.0049   
    1.56000       1.5600       8.0049   
    1.56500       1.5650       8.0049   
    1.57000       1.5700       8.0049   
    1.57500       1.5750       8.0049   
    1.58000       1.5800       8.0049   
    1.58500       1.5850       8.0049   
    1.59000       1.5900       8.0049   
    1.59500       1.5950       8.0049   
    1.60000       1.6000       8.0049   
    1.60500       1.6050       8.0048   
    1.61000       1.6100       8.0048   
    1.61500       1.6150       8.0048   
    1.62000       1.6200       8.0048   
    1.62500       1.6250       8.0048   
    1.63000       1.6300       8.0048   
    1.63500       1.6350       8.0048   
    1.64000       1.6400       8.0048   
    1.64500       1.6450       8.0048   
    1.65000       1.6500       8.0048   
    1.65500       1.6550       8.0048   
    1.66000       1.6600       8.0048   
    1.66500       1.6650       8.0048   
    1.67000       1.6700       8.0048   
    1.67500       1.6750       8.0048   
    1.68000       1.6800       8.0048   
    1.68500       1.6850       8.0048   
    1.69000       1.6900       8.0048   
    1.69500       1.6950       8.0048   
    1.70000       1.7000       8.0048   
    1.70500       1.7050       8.0048   
    1.71000       1.7100       8.0048   
    1.71500       1.7150       8.0048   
    1.72000       1.7200       8.0048   
    1.72500       1.7250       8.0048   
    1.73000       1.7300       8.0048   
    1.73500       1.7350       8.0048   
    1.74000       1.7400       8.0048   
    1.74500       1.7450       8.0048   
    1.75000       1.7500       8.0048   
    1.75500       1.7550       8.0048   
    1.76000       1.7600       8.0048   
    1.76500       1.7650       8.0048   
    1.77000       1.7700       8.0048   
    1.77500       1.7750       8.0048   
    1.78000       1.7800       8.0048   
    1.78500       1.7850       8.0048   
    1.79000       1.7900       8.0048   
    1.79500       1.7950       8.0048   
    1.80000       1.8000       8.0048   
    1.80500       1.8050       8.0048   
    1.81000       1.8100       8.0048   
    1.81500       1.8150       8.0048   
    1.82000       1.8200       8.0047   
    1.82500       1.8250       8.0047   
    1.83000       1.8300       8.0047   
    1.83500       1.8350       8.0047   
    1.84000       1.8400       8.0047   
    1.84500       1.8450       8.0047   
    1.85000       1.8500       8.0047   
    1.85500       1.8550       8.0047   
    1.86000       1.8600       8.0047   
    1.86500       1.8650       8.0047   
    1.87000       1.8700       8.0047   
    1.87500       1.8750       8.0047   
    1.88000       1.8800       8.0047   
    1.88500       1.8850       8.0047   
    1.89000       1.8900       8.0047   
    1.89500       1.8950       8.0047   
    1.90000       1.9000       8.0047   
    1.90500       1.9050       8.0047   
    1.91000       1.9100       8.0047   
    1.91500       1.9150       8.0047   
    1.92000       1.9200       8.0047   
    1.92500       1.9250       8.0047   
    1.93000       1.9300       8.0047   
    1.93500       1.9350       8.0047   
    1.94000       1.9400       8.0047   
    1.94500       1.9450       8.0047   
    1.95000       1.9500       8.0047   
    1.95500       1.9550       8.0047   
    1.96000       1.9600       8.0047   
    1.96500       1.9650       8.0047   
    1.97000       1.9700       8.0047   
    1.97500       1.9750       8.0047   
    1.98000       1.9800       8.0047   
    1.98500       1.9850       8.0047   
    1.99000       1.9900       8.0047   
    1.99500       1.9950       8.0047   
    2.00000       2.0000       8.0047   
    2.00500       2.0050       8.0047   
    2.01000       2.0100       8.0047   
    2.01500       2.0150       8.0047   
    2.02000       2.0200       8.0047   
    2.02500       2.0250       8.0047   
    2.03000       2.0300       8.0047   
    2.03500       2.0350       8.0047   
    2.04000       2.0400       8.0047   
    2.04500       2.0450       8.0047   
    2.05000       2.0500       8.0047   
    2.05500       2.0550       8.0047   
    2.06000       2.0600       8.0047   
    2.06500       2.0650       8.0047   
    2.07000       2.0700       8.0046   
    2.07500       2.0750       8.0046   
    2.08000       2.0800       8.0046   
    2.08500       2.0850       8.0046   
    2.09000       2.0900       8.0046   
    2.09500       2.0950       8.0046   
    2.10000       2.1000       8.0046   
    2.10500       2.1050       8.0046   
    2.11000       2.1100       8.0046   
    2.11500       2.1150       8.0046   
    2.12000       2.1200       8.0046   
    2.12500       2.1250       8.0046   
    2.13000       2.1300       8.0046   
    2.13500       2.1350       8.0046   
    2.14000       2.1400       8.0046   
    2.14500       2.1450       8.0046   
    2.15000       2.1500       8.0046   
    2.15500       2.1550       8.0046   
    2.16000       2.1600       8.0046   
    2.16500       2.1650       8.0046   
    2.17000       2.1700       8.0046   
    2.17500       2.1750       8.0046   
    2.18000       2.1800       8.0046   
    2.18500       2.1850       8.0046   
    2.19000       2.1900       8.0046   
    2.19500       2.1950       8.0046   
    2.20000       2.2000       8.0046   
    2.20500       2.2050       8.0046   
    2.21000       2.2100       8.0046   
    2.21500       2.2150       8.0046   
    2.22000       2.2200       8.0046   
    2.22500       2.2250       8.0046   
    2.23000       2.2300       8.0046   
    2.23500       2.2350       8.0046   
    2.24000       2.2400       8.0046   
    2.24500       2.2450       8.0046   
    2.25000       2.2500       8.0046   
    2.25500       2.2550       8.0046   
    2.26000       2.2600       8.0046   
    2.26500       2.2650       8.0046   
    2.27000       2.2700       8.0046   
    2.27500       2.2750       8.0046   
    2.28000       2.2800       8.0046   
    2.28500       2.2850       8.0046   
    2.29000       2.2900       8.0046   
    2.29500       2.2950       8.0046   
    2.30000       2.3000       8.0046   
    2.30500       2.3050       8.0046   
    2.31000       2.3100       8.0046   
    2.31500       2.3150       8.0046   
    2.32000       2.3200       8.0045   
    2.32500       2.3250       8.0045   
    2.33000       2.3300       8.0045   
    2.33500       2.3350       8.0045   
    2.34000       2.3400       8.0045   
    2.34500       2.3450       8.0045   
    2.35000       2.3500       8.0045   
    2.35500       2.3550       8.0045   
    2.36000       2.3600       8.0045   
    2.36500       2.3650       8.0045   
    2.37000       2.3700       8.0045   
    2.37500       2.3750       8.0045   
    2.38000       2.3800       8.0045   
    2.38500       2.3850       8.0045   
    2.39000       2.3900       8.0045   
    2.39500       2.3950       8.0045   
    2.40000       2.4000       8.0045   
    2.40500       2.4050       8.0045   
    2.41000       2.4100       8.0045   
    2.41500       2.4150       8.0045   
    2.42000       2.4200       8.0045   
    2.42500       2.4250       8.0045   
    2.43000       2.4300       8.0045   
    2.43500       2.4350       8.0045   
    2.44000       2.4400       8.0045   
    2.44500       2.4450       8.0045   
    2.45000       2.4500       8.0045   
    2.45500       2.4550       8.0045   
    2.46000       2.4600       8.0045   
    2.46500       2.4650       8.0045   
    2.47000       2.4700       8.0045   
    2.47500       2.4750       8.0045   
    2.48000       2.4800       8.0045   
    2.48500       2.4850       8.0045   
    2.49000       2.4900       8.0045   
    2.49500       2.4950       8.0045   
    2.50000       2.5000       8.0045   
    2.50500       2.5050       8.0045   
    2.51000       2.5100       8.0045   
    2.51500       2.5150       8.0045   
    2.52000       2.5200       8.0045   
    2.52500       2.5250       8.0045   
    2.53000       2.5300       8.0045   
    2.53500       2.5350       8.0045   
    2.54000       2.5400       8.0045   
    2.54500       2.5450       8.0045   
    2.55000       2.5500       8.0045   
    2.55500       2.5550       8.0045   
    2.56000       2.5600       8.0045   
    2.56500       2.5650       8.0045   
    2.57000       2.5700       8.0044   
    2.57500       2.5750       8.0044   
    2.58000       2.5800       8.0044   
    2.58500       2.5850       8.0044   
    2.59000       2.5900       8.0044   
    2.59500       2.5950       8.0044   
    2.60000       2.6000       8.0044   
    2.60500       2.6050       8.0044   
    2.61000       2.6100       8.0044   
    2.61500       2.6150       8.0044   
    2.62000       2.6200       8.0044   
    2.62500       2.6250       8.0044   
    2.63000       2.6300       8.0044   
    2.63500       2.6350       8.0044   
    2.64000       2.6400       8.0044   
    2.64500       2.6450       8.0044   
    2.65000       2.6500       8.0044   
    2.65500       2.6550       8.0044   
    2.66000       2.6600       8.0044   
    2.66500       2.6650       8.0044   
    2.67000       2.6700       8.0044   
    2.67500       2.6750       8.0044   
    2.68000       2.6800       8.0044   
    2.68500       2.6850       8.0044   
    2.69000       2.6900       8.0044   
    2.69500       2.6950       8.0044   
    2.70000       2.7000       8.0044   
    2.70500       2.7050       8.0044   
    2.71000       2.7100       8.0044   
    2.71500       2.7150       8.0044   
    2.72000       2.7200       8.0044   
    2.72500       2.7250       8.0044   
    2.73000       2.7300       8.0044   
    2.73500       2.7350       8.0044   
    2.74000       2.7400       8.0044   
    2.74500       2.7450       8.0044   
    2.75000       2.7500       8.0044   
    2.75500       2.7550       8.0044   
    2.76000       2.7600       8.0044   
    2.76500       2.7650       8.0044   
    2.77000       2.7700       8.0044   
    2.77500       2.7750       8.0044   
    2.78000       2.7800       8.0044   
    2.78500       2.7850       8.0044   
    2.79000       2.7900       8.0044   
    2.79500       2.7950       8.0044   
    2.80000       2.8000       8.0044   
    2.80500       2.8050       8.0044   
    2.81000       2.8100       8.0044   
    2.81500       2.8150       8.0044   
    2.82000       2.8200       8.0043   
    2.82500       2.8250       8.0043   
    2.83000       2.8300       8.0043   
    2.83500       2.8350       8.0043   
    2.84000       2.8400       8.0043   
    2.84500       2.8450       8.0043   
    2.85000       2.8500       8.0043   
    2.85500       2.8550       8.0043   
    2.86000       2.8600       8.0043   
    2.86500       2.8650       8.0043   
    2.87000       2.8700       8.0043   
    2.87500       2.8750       8.0043   
    2.88000       2.8800       8.0043   
    2.88500       2.8850       8.0043   
    2.89000       2.8900       8.0043   
    2.89500       2.8950       8.0043   
    2.90000       2.9000       8.0043   
    2.90500       2.9050       8.0043   
    2.91000       2.9100       8.0043   
    2.91500       2.9150       8.0043   
    2.92000       2.9200       8.0043   
    2.92500       2.9250       8.0043   
    2.93000       2.9300       8.0043   
    2.93500       2.9350       8.0043   
    2.94000       2.9400       8.0043   
    2.94500       2.9450       8.0043   
    2.95000       2.9500       8.0043   
    2.95500       2.9550       8.0043   
    2.96000       2.9600       8.0043   
    2.96500       2.9650       8.0043   
    2.97000       2.9700       8.0043   
    2.97500       2.9750       8.0043   
    2.98000       2.9800       8.0043   
    2.98500       2.9850       8.0043   
    2.99000       2.9900       8.0043   
    2.99500       2.9950       8.0043   
    3.00000       3.0000       8.0043   
    3.00500       3.0050       8.0043   
    3.01000       3.0100       8.0043   
    3.01500       3.0150       8.0043   
    3.02000       3.0200       8.0043   
    3.02500       3.0250       8.0043   
    3.03000       3.0300       8.0043   
    3.03500       3.0350       8.0043   
    3.04000       3.0400       8.0043   
    3.04500       3.0450       8.0043   
    3.05000       3.0500       8.0043   
    3.05500       3.0550       8.0043   
    3.06000       3.0600       8.0043   
    3.06500       3.0650       8.0043   
    3.07000       3.0700       8.0042   
    3.07500       3.0750       8.0042   
    3.08000       3.0800       8.0042   
    3.08500       3.0850       8.0042   
    3.09000       3.0900       8.0042   
    3.09500       3.0950       8.0042   
    3.10000       3.1000       8.0042   
    3.10500       3.1050       8.0042   
    3.11000       3.1100       8.0042   
    3.11500       3.1150       8.0042   
    3.12000       3.1200       8.0042   
    3.12500       3.1250       8.0042   
    3.13000       3.1300       8.0042   
    3.13500       3.1350       8.0042   
    3.14000       3.1400       8.0042   
    3.14500       3.1450       8.0042   
    3.15000       3.1500       8.0042   
    3.15500       3.1550       8.0042   
    3.16000       3.1600       8.0042   
    3.16500       3.1650       8.0042   
    3.17000       3.1700       8.0042   
    3.17500       3.1750       8.0042   
    3.18000       3.1800       8.0042   
    3.18500       3.1850       8.0042   
    3.19000       3.1900       8.0042   
    3.19500       3.1950       8.0042   
    3.20000       3.2000       8.0042   
    3.20500       3.2050       8.0042   
    3.21000       3.2100       8.0042   
    3.21500       3.2150       8.0042   
    3.22000       3.2200       8.0042   
    3.22500       3.2250       8.0042   
    3.23000       3.2300       8.0042   
    3.23500       3.2350       8.0042   
    3.24000       3.2400       8.0042   
    3.24500       3.2450       8.0042   
    3.25000       3.2500       8.0042   
    3.25500       3.2550       8.0042   
    3.26000       3.2600       8.0042   
    3.26500       3.2650       8.0042   
    3.27000       3.2700       8.0042   
    3.27500       3.2750       8.0042   
    3.28000       3.2800       8.0042   
    3.28500       3.2850       8.0042   
    3.29000       3.2900       8.0042   
    3.29500       3.2950       8.0042   
    3.30000       3.3000       8.0042   
    3.30500       3.3050       8.0042   
    3.31000       3.3100       8.0042   
    3.31500       3.3150       8.0042   
    3.32000       3.3200       8.0041   
    3.32500       3.3250       8.0041   
    3.33000       3.3300       8.0041   
    3.33500       3.3350       8.0041   
    3.34000       3.3400       8.0041   
    3.34500       3.3450       8.0041   
    3.35000       3.3500       8.0041   
    3.35500       3.3550       8.0041   
    3.36000       3.3600       8.0041   
    3.36500       3.3650       8.0041   
    3.37000       3.3700       8.0041   
    3.37500       3.3750       8.0041   
    3.38000       3.3800       8.0041   
    3.38500       3.3850       8.0041   
    3.39000       3.3900       8.0041   
    3.39500       3.3950       8.0041   
    3.40000       3.4000       8.0041   
    3.40500       3.4050       8.0041   
    3.41000       3.4100       8.0041   
    3.41500       3.4150       8.0041   
    3.42000       3.4200       8.0041   
    3.42500       3.4250       8.0041   
    3.43000       3.4300       8.0041   
    3.43500       3.4350       8.0041   
    3.44000       3.4400       8.0041   
    3.44500       3.4450       8.0041   
    3.45000       3.4500       8.0041   
    3.45500       3.4550       8.0041   
    3.46000       3.4600       8.0041   
    3.46500       3.4650       8.0041   
    3.47000       3.4700       8.0041   
    3.47500       3.4750       8.0041   
    3.48000       3.4800       8.0041   
    3.48500       3.4850       8.0041   
    3.49000       3.4900       8.0041   
    3.49500       3.4950       8.0041   
    3.50000       3.5000       8.0041   
    3.50500       3.5050       8.0041   
    3.51000       3.5100       8.0041   
    3.51500       3.5150       8.0041   
    3.52000       3.5200       8.0041   
    3.52500       3.5250       8.0041   
    3.53000       3.5300       8.0041   
    3.53500       3.5350       8.0041   
    3.54000       3.5400       8.0041   
    3.54500       3.5450       8.0041   
    3.55000       3.5500       8.0041   
    3.55500       3.5550       8.0041   
    3.56000       3.5600       8.0041   
    3.56500       3.5650       8.0041   
    3.57000       3.5700       8.0040   
    3.57500       3.5750       8.0040   
    3.58000       3.5800       8.0040   
    3.58500       3.5850       8.0040   
    3.59000       3.5900       8.0040   
    3.59500       3.5950       8.0040   
    3.60000       3.6000       8.0040   
    3.60500       3.6050       8.0040   
    3.61000       3.6100       8.0040   
    3.61500       3.6150       8.0040   
    3.62000       3.6200       8.0040   
    3.62500       3.6250       8.0040   
    3.63000       3.6300       8.0040   
    3.63500       3.6350       8.0040   
    3.64000       3.6400       8.0040   
    3.64500       3.6450       8.0040   
    3.65000       3.6500       8.0040   
    3.65500       3.6550       8.0040   
    3.66000       3.6600       8.0040   
    3.66500       3.6650       8.0040   
    3.67000       3.6700       8.0040   
    3.67500       3.6750       8.0040   
    3.68000       3.6800       8.0040   
    3.68500       3.6850       8.0040   
    3.69000       3.6900       8.0040   
    3.69500       3.6950       8.0040   
    3.70000       3.7000       8.0040   
    3.70500       3.7050       8.0040   
    3.71000       3.7100       8.0040   
    3.71500       3.7150       8.0040   
    3.72000       3.7200       8.0040   
    3.72500       3.7250       8.0040   
    3.73000       3.7300       8.0040   
    3.73500       3.7350       8.0040   
    3.74000       3.7400       8.0040   
    3.74500       3.7450       8.0040   
    3.75000       3.7500       8.0040   
    3.75500       3.7550       8.0040   
    3.76000       3.7600       8.0040   
    3.76500       3.7650       8.0040   
    3.77000       3.7700       8.0040   
    3.77500       3.7750       8.0040   
    3.78000       3.7800       8.0040   
    3.78500       3.7850       8.0040   
    3.79000       3.7900       8.0040   
    3.79500       3.7950       8.0040   
    3.80000       3.8000       8.0040   
    3.80500       3.8050       8.0040   
    3.81000       3.8100       8.0040   
    3.81500       3.8150       8.0040   
    3.82000       3.8200       8.0039   
    3.82500       3.8250       8.0039   
    3.83000       3.8300       8.0039   
    3.83500       3.8350       8.0039   
    3.84000       3.8400       8.0039   
    3.84500       3.8450       8.0039   
    3.85000       3.8500       8.0039   
    3.85500       3.8550       8.0039   
    3.86000       3.8600       8.0039   
    3.86500       3.8650       8.0039   
    3.87000       3.8700       8.0039   
    3.87500       3.8750       8.0039   
    3.88000       3.8800       8.0039   
    3.88500       3.8850       8.0039   
    3.89000       3.8900       8.0039   
    3.89500       3.8950       8.0039   
    3.90000       3.9000       8.0039   
    3.90500       3.9050       8.0039   
    3.91000       3.9100       8.0039   
    3.91500       3.9150       8.0039   
    3.92000       3.9200       8.0039   
    3.92500       3.9250       8.0039   
    3.93000       3.9300       8.0039   
    3.93500       3.9350       8.0039   
    3.94000       3.9400       8.0039   
    3.94500       3.9450       8.0039   
    3.95000       3.9500       8.0039   
    3.95500       3.9550       8.0039   
    3.96000       3.9600       8.0039   
    3.96500       3.9650       8.0039   
    3.97000       3.9700       8.0039   
    3.97500       3.9750       8.0039   
    3.98000       3.9800       8.0039   
    3.98500       3.9850       8.0039   
    3.99000       3.9900       8.0039   
    3.99500       3.9950       8.0039   
    4.00000       4.0000       8.0039   
    4.00500       4.0050       8.0039   
    4.01000       4.0100       8.0039   
    4.01500       4.0150       8.0039   
    4.02000       4.0200       8.0039   
    4.02500       4.0250       8.0039   
    4.03000       4.0300       8.0039   
    4.03500       4.0350       8.0039   
    4.04000       4.0400       8.0039   
    4.04500       4.0450       8.0039   
    4.05000       4.0500       8.0039   
    4.05500       4.0550       8.0039   
    4.06000       4.0600       8.0039   
    4.06500       4.0650       8.0039   
    4.07000       4.0700       8.0038   
    4.07500       4.0750       8.0038   
    4.08000       4.0800       8.0038   
    4.08500       4.0850       8.0038   
    4.09000       4.0900       8.0038   
    4.09500       4.0950       8.0038   
    4.10000       4.1000       8.0038   
    4.10500       4.1050       8.0038   
    4.11000       4.1100       8.0038   
    4.11500       4.1150       8.0038   
    4.12000       4.1200       8.0038   
    4.12500       4.1250       8.0038   
    4.13000       4.1300       8.0038   
    4.13500       4.1350       8.0038   
    4.14000       4.1400       8.0038   
    4.14500       4.1450       8.0038   
    4.15000       4.1500       8.0038   
    4.15500       4.1550       8.0038   
    4.16000       4.1600       8.0038   
    4.16500       4.1650       8.0038   
    4.17000       4.1700       8.0038   
    4.17500       4.1750       8.0038   
    4.18000       4.1800       8.0038   
    4.18500       4.1850       8.0038   
    4.19000       4.1900       8.0038   
    4.19500       4.1950       8.0038   
    4.20000       4.2000       8.0038   
    4.20500       4.2050       8.0038   
    4.21000       4.2100       8.0038   
    4.21500       4.2150       8.0038   
    4.22000       4.2200       8.0038   
    4.22500       4.2250       8.0038   
    4.23000       4.2300       8.0038   
[...]
   27.78500      27.7850    -129.5161   
   27.79000      27.7900    -129.5905   
   27.79500      27.7950    -129.6649   
   27.80000      27.8000    -129.7393   
   27.80500      27.8050    -129.8137   
   27.81000      27.8100    -129.8882   
   27.81500      27.8150    -129.9626   
   27.82000      27.8200    -130.0370   
   27.82500      27.8250    -130.1114   
   27.83000      27.8300    -130.1859   
   27.83500      27.8350    -130.2603   
   27.84000      27.8400    -130.3347   
   27.84500      27.8450    -130.4092   
   27.85000      27.8500    -130.4836   
   27.85500      27.8550    -130.5581   
   27.86000      27.8600    -130.6325   
   27.86500      27.8650    -130.7070   
   27.87000      27.8700    -130.7815   
   27.87500      27.8750    -130.8560   
   27.88000      27.8800    -130.9304   
   27.88500      27.8850    -131.0049   
   27.89000      27.8900    -131.0794   
   27.89500      27.8950    -131.1539   
   27.90000      27.9000    -131.2284   
   27.90500      27.9050    -131.3029   
   27.91000      27.9100    -131.3774   
   27.91500      27.9150    -131.4519   
   27.92000      27.9200    -131.5264   
   27.92500      27.9250    -131.6009   
   27.93000      27.9300    -131.6754   
   27.93500      27.9350    -131.7500   
   27.94000      27.9400    -131.8245   
   27.94500      27.9450    -131.8990   
   27.95000      27.9500    -131.9736   
   27.95500      27.9550    -132.0481   
   27.96000      27.9600    -132.1227   
   27.96500      27.9650    -132.1972   
   27.97000      27.9700    -132.2718   
   27.97500      27.9750    -132.3463   
   27.98000      27.9800    -132.4209   
   27.98500      27.9850    -132.4955   
   27.99000      27.9900    -132.5701   
   27.99500      27.9950    -132.6446   
   28.00000      28.0000    -132.7192   
   28.00500      28.0050    -132.7938   
   28.01000      28.0100    -132.8684   
   28.01500      28.0150    -132.9430   
   28.02000      28.0200    -133.0176   
   28.02500      28.0250    -133.0922   
   28.03000      28.0300    -133.1668   
   28.03500      28.0350    -133.2414   
   28.04000      28.0400    -133.3161   
   28.04500      28.0450    -133.3907   
   28.05000      28.0500    -133.4653   
   28.05500      28.0550    -133.5399   
   28.06000      28.0600    -133.6146   
   28.06500      28.0650    -133.6892   
   28.07000      28.0700    -133.7639   
   28.07500      28.0750    -133.8385   
   28.08000      28.0800    -133.9132   
   28.08500      28.0850    -133.9878   
   28.09000      28.0900    -134.0625   
   28.09500      28.0950    -134.1372   
   28.10000      28.1000    -134.2118   
   28.10500      28.1050    -134.2865   
   28.11000      28.1100    -134.3612   
   28.11500      28.1150    -134.4359   
   28.12000      28.1200    -134.5106   
   28.12500      28.1250    -134.5853   
   28.13000      28.1300    -134.6600   
   28.13500      28.1350    -134.7347   
   28.14000      28.1400    -134.8094   
   28.14500      28.1450    -134.8841   
   28.15000      28.1500    -134.9588   
   28.15500      28.1550    -135.0335   
   28.16000      28.1600    -135.1082   
   28.16500      28.1650    -135.1830   
   28.17000      28.1700    -135.2577   
   28.17500      28.1750    -135.3324   
   28.18000      28.1800    -135.4072   
   28.18500      28.1850    -135.4819   
   28.19000      28.1900    -135.5567   
   28.19500      28.1950    -135.6314   
   28.20000      28.2000    -135.7062   
   28.20500      28.2050    -135.7809   
   28.21000      28.2100    -135.8557   
   28.21500      28.2150    -135.9305   
   28.22000      28.2200    -136.0053   
   28.22500      28.2250    -136.0800   
   28.23000      28.2300    -136.1548   
   28.23500      28.2350    -136.2296   
   28.24000      28.2400    -136.3044   
   28.24500      28.2450    -136.3792   
   28.25000      28.2500    -136.4540   
   28.25500      28.2550    -136.5288   
   28.26000      28.2600    -136.6036   
   28.26500      28.2650    -136.6784   
   28.27000      28.2700    -136.7532   
   28.27500      28.2750    -136.8281   
   28.28000      28.2800    -136.9029   
   28.28500      28.2850    -136.9777   
   28.29000      28.2900    -137.0526   
   28.29500      28.2950    -137.1274   
   28.30000      28.3000    -137.2022   
   28.30500      28.3050    -137.2771   
   28.31000      28.3100    -137.3519   
   28.31500      28.3150    -137.4268   
   28.32000      28.3200    -137.5017   
   28.32500      28.3250    -137.5765   
   28.33000      28.3300    -137.6514   
   28.33500      28.3350    -137.7263   
   28.34000      28.3400    -137.8011   
   28.34500      28.3450    -137.8760   
   28.35000      28.3500    -137.9509   
   28.35500      28.3550    -138.0258   
   28.36000      28.3600    -138.1007   
   28.36500      28.3650    -138.1756   
   28.37000      28.3700    -138.2505   
   28.37500      28.3750    -138.3254   
   28.38000      28.3800    -138.4003   
   28.38500      28.3850    -138.4752   
   28.39000      28.3900    -138.5501   
   28.39500      28.3950    -138.6250   
   28.40000      28.4000    -138.7000   
   28.40500      28.4050    -138.7749   
   28.41000      28.4100    -138.8498   
   28.41500      28.4150    -138.9248   
   28.42000      28.4200    -138.9997   
   28.42500      28.4250    -139.0747   
   28.43000      28.4300    -139.1496   
   28.43500      28.4350    -139.2246   
   28.44000      28.4400    -139.2995   
   28.44500      28.4450    -139.3745   
   28.45000      28.4500    -139.4495   
   28.45500      28.4550    -139.5244   
   28.46000      28.4600    -139.5994   
   28.46500      28.4650    -139.6744   
   28.47000      28.4700    -139.7494   
   28.47500      28.4750    -139.8244   
   28.48000      28.4800    -139.8994   
   28.48500      28.4850    -139.9744   
   28.49000      28.4900    -140.0494   
   28.49500      28.4950    -140.1244   
   28.50000      28.5000    -140.1994   
   28.50500      28.5050    -140.2744   
   28.51000      28.5100    -140.3494   
   28.51500      28.5150    -140.4244   
   28.52000      28.5200    -140.4994   
   28.52500      28.5250    -140.5745   
   28.53000      28.5300    -140.6495   
   28.53500      28.5350    -140.7245   
   28.54000      28.5400    -140.7996   
   28.54500      28.5450    -140.8746   
   28.55000      28.5500    -140.9497   
   28.55500      28.5550    -141.0247   
   28.56000      28.5600    -141.0998   
   28.56500      28.5650    -141.1748   
   28.57000      28.5700    -141.2499   
   28.57500      28.5750    -141.3250   
   28.58000      28.5800    -141.4000   
   28.58500      28.5850    -141.4751   
   28.59000      28.5900    -141.5502   
   28.59500      28.5950    -141.6253   
   28.60000      28.6000    -141.7004   
   28.60500      28.6050    -141.7755   
   28.61000      28.6100    -141.8506   
   28.61500      28.6150    -141.9257   
   28.62000      28.6200    -142.0008   
   28.62500      28.6250    -142.0759   
   28.63000      28.6300    -142.1510   
   28.63500      28.6350    -142.2261   
   28.64000      28.6400    -142.3012   
   28.64500      28.6450    -142.3764   
   28.65000      28.6500    -142.4515   
   28.65500      28.6550    -142.5266   
   28.66000      28.6600    -142.6018   
   28.66500      28.6650    -142.6769   
   28.67000      28.6700    -142.7520   
   28.67500      28.6750    -142.8272   
   28.68000      28.6800    -142.9023   
   28.68500      28.6850    -142.9775   
   28.69000      28.6900    -143.0527   
   28.69500      28.6950    -143.1278   
   28.70000      28.7000    -143.2030   
   28.70500      28.7050    -143.2782   
   28.71000      28.7100    -143.3533   
   28.71500      28.7150    -143.4285   
   28.72000      28.7200    -143.5037   
   28.72500      28.7250    -143.5789   
   28.73000      28.7300    -143.6541   
   28.73500      28.7350    -143.7293   
   28.74000      28.7400    -143.8045   
   28.74500      28.7450    -143.8797   
   28.75000      28.7500    -143.9549   
   28.75500      28.7550    -144.0301   
   28.76000      28.7600    -144.1053   
   28.76500      28.7650    -144.1805   
   28.77000      28.7700    -144.2558   
   28.77500      28.7750    -144.3310   
   28.78000      28.7800    -144.4062   
   28.78500      28.7850    -144.4815   
   28.79000      28.7900    -144.5567   
   28.79500      28.7950    -144.6319   
   28.80000      28.8000    -144.7072   
   28.80500      28.8050    -144.7824   
   28.81000      28.8100    -144.8577   
   28.81500      28.8150    -144.9330   
   28.82000      28.8200    -145.0082   
   28.82500      28.8250    -145.0835   
   28.83000      28.8300    -145.1588   
   28.83500      28.8350    -145.2340   
   28.84000      28.8400    -145.3093   
   28.84500      28.8450    -145.3846   
   28.85000      28.8500    -145.4599   
   28.85500      28.8550    -145.5352   
   28.86000      28.8600    -145.6105   
   28.86500      28.8650    -145.6857   
   28.87000      28.8700    -145.7610   
   28.87500      28.8750    -145.8364   
   28.88000      28.8800    -145.9117   
   28.88500      28.8850    -145.9870   
   28.89000      28.8900    -146.0623   
   28.89500      28.8950    -146.1376   
   28.90000      28.9000    -146.2129   
   28.90500      28.9050    -146.2883   
   28.91000      28.9100    -146.3636   
   28.91500      28.9150    -146.4389   
   28.92000      28.9200    -146.5143   
   28.92500      28.9250    -146.5896   
   28.93000      28.9300    -146.6650   
   28.93500      28.9350    -146.7403   
   28.94000      28.9400    -146.8157   
   28.94500      28.9450    -146.8910   
   28.95000      28.9500    -146.9664   
   28.95500      28.9550    -147.0417   
   28.96000      28.9600    -147.1171   
   28.96500      28.9650    -147.1925   
   28.97000      28.9700    -147.2679   
   28.97500      28.9750    -147.3432   
   28.98000      28.9800    -147.4186   
   28.98500      28.9850    -147.4940   
   28.99000      28.9900    -147.5694   
   28.99500      28.9950    -147.6448   
   29.00000      29.0000    -147.7202   
   29.00500      29.0050    -147.7956   
   29.01000      29.0100    -147.8710   
   29.01500      29.0150    -147.9464   
   29.02000      29.0200    -148.0218   
   29.02500      29.0250    -148.0973   
   29.03000      29.0300    -148.1727   
   29.03500      29.0350    -148.2481   
   29.04000      29.0400    -148.3235   
   29.04500      29.0450    -148.3990   
   29.05000      29.0500    -148.4744   
   29.05500      29.0550    -148.5498   
   29.06000      29.0600    -148.6253   
   29.06500      29.0650    -148.7007   
   29.07000      29.0700    -148.7762   
   29.07500      29.0750    -148.8516   
   29.08000      29.0800    -148.9271   
   29.08500      29.0850    -149.0026   
   29.09000      29.0900    -149.0780   
   29.09500      29.0950    -149.1535   
   29.10000      29.1000    -149.2290   
   29.10500      29.1050    -149.3045   
   29.11000      29.1100    -149.3799   
   29.11500      29.1150    -149.4554   
   29.12000      29.1200    -149.5309   
   29.12500      29.1250    -149.6064   
   29.13000      29.1300    -149.6819   
   29.13500      29.1350    -149.7574   
   29.14000      29.1400    -149.8329   
   29.14500      29.1450    -149.9084   
   29.15000      29.1500    -149.9839   
   29.15500      29.1550    -150.0594   
   29.16000      29.1600    -150.1350   
   29.16500      29.1650    -150.2105   
   29.17000      29.1700    -150.2860   
   29.17500      29.1750    -150.3615   
   29.18000      29.1800    -150.4371   
   29.18500      29.1850    -150.5126   
   29.19000      29.1900    -150.5881   
   29.19500      29.1950    -150.6637   
   29.20000      29.2000    -150.7392   
   29.20500      29.2050    -150.8148   
   29.21000      29.2100    -150.8903   
   29.21500      29.2150    -150.9659   
   29.22000      29.2200    -151.0415   
   29.22500      29.2250    -151.1170   
   29.23000      29.2300    -151.1926   
   29.23500      29.2350    -151.2682   
   29.24000      29.2400    -151.3437   
   29.24500      29.2450    -151.4193   
   29.25000      29.2500    -151.4949   
   29.25500      29.2550    -151.5705   
   29.26000      29.2600    -151.6461   
   29.26500      29.2650    -151.7217   
   29.27000      29.2700    -151.7973   
   29.27500      29.2750    -151.8729   
   29.28000      29.2800    -151.9485   
   29.28500      29.2850    -152.0241   
   29.29000      29.2900    -152.0997   
   29.29500      29.2950    -152.1753   
   29.30000      29.3000    -152.2509   
   29.30500      29.3050    -152.3266   
   29.31000      29.3100    -152.4022   
   29.31500      29.3150    -152.4778   
   29.32000      29.3200    -152.5535   
   29.32500      29.3250    -152.6291   
   29.33000      29.3300    -152.7047   
   29.33500      29.3350    -152.7804   
   29.34000      29.3400    -152.8560   
   29.34500      29.3450    -152.9317   
   29.35000      29.3500    -153.0073   
   29.35500      29.3550    -153.0830   
   29.36000      29.3600    -153.1587   
   29.36500      29.3650    -153.2343   
   29.37000      29.3700    -153.3100   
   29.37500      29.3750    -153.3857   
   29.38000      29.3800    -153.4613   
   29.38500      29.3850    -153.5370   
   29.39000      29.3900    -153.6127   
   29.39500      29.3950    -153.6884   
   29.40000      29.4000    -153.7641   
   29.40500      29.4050    -153.8398   
   29.41000      29.4100    -153.9155   
   29.41500      29.4150    -153.9912   
   29.42000      29.4200    -154.0669   
   29.42500      29.4250    -154.1426   
   29.43000      29.4300    -154.2183   
   29.43500      29.4350    -154.2940   
   29.44000      29.4400    -154.3697   
   29.44500      29.4450    -154.4455   
   29.45000      29.4500    -154.5212   
   29.45500      29.4550    -154.5969   
   29.46000      29.4600    -154.6726   
   29.46500      29.4650    -154.7484   
   29.47000      29.4700    -154.8241   
   29.47500      29.4750    -154.8999   
   29.48000      29.4800    -154.9756   
   29.48500      29.4850    -155.0514   
   29.49000      29.4900    -155.1271   
   29.49500      29.4950    -155.2029   
   29.50000      29.5000    -155.2786   
   29.50500      29.5050    -155.3544   
   29.51000      29.5100    -155.4302   
   29.51500      29.5150    -155.5059   
   29.52000      29.5200    -155.5817   
   29.52500      29.5250    -155.6575   
   29.53000      29.5300    -155.7333   
   29.53500      29.5350    -155.8091   
   29.54000      29.5400    -155.8849   
   29.54500      29.5450    -155.9606   
   29.55000      29.5500    -156.0364   
   29.55500      29.5550    -156.1122   
   29.56000      29.5600    -156.1880   
   29.56500      29.5650    -156.2638   
   29.57000      29.5700    -156.3397   
   29.57500      29.5750    -156.4155   
   29.58000      29.5800    -156.4913   
   29.58500      29.5850    -156.5671   
   29.59000      29.5900    -156.6429   
   29.59500      29.5950    -156.7188   
   29.60000      29.6000    -156.7946   
   29.60500      29.6050    -156.8704   
   29.61000      29.6100    -156.9463   
   29.61500      29.6150    -157.0221   
   29.62000      29.6200    -157.0979   
   29.62500      29.6250    -157.1738   
   29.63000      29.6300    -157.2496   
   29.63500      29.6350    -157.3255   
   29.64000      29.6400    -157.4014   
   29.64500      29.6450    -157.4772   
   29.65000      29.6500    -157.5531   
   29.65500      29.6550    -157.6289   
   29.66000      29.6600    -157.7048   
   29.66500      29.6650    -157.7807   
   29.67000      29.6700    -157.8566   
   29.67500      29.6750    -157.9325   
   29.68000      29.6800    -158.0083   
   29.68500      29.6850    -158.0842   
   29.69000      29.6900    -158.1601   
   29.69500      29.6950    -158.2360   
   29.70000      29.7000    -158.3119   
   29.70500      29.7050    -158.3878   
   29.71000      29.7100    -158.4637   
   29.71500      29.7150    -158.5396   
   29.72000      29.7200    -158.6155   
   29.72500      29.7250    -158.6914   
   29.73000      29.7300    -158.7674   
   29.73500      29.7350    -158.8433   
   29.74000      29.7400    -158.9192   
   29.74500      29.7450    -158.9951   
   29.75000      29.7500    -159.0711   
   29.75500      29.7550    -159.1470   
   29.76000      29.7600    -159.2229   
   29.76500      29.7650    -159.2989   
   29.77000      29.7700    -159.3748   
   29.77500      29.7750    -159.4508   
   29.78000      29.7800    -159.5267   
   29.78500      29.7850    -159.6027   
   29.79000      29.7900    -159.6787   
   29.79500      29.7950    -159.7546   
   29.80000      29.8000    -159.8306   
   29.80500      29.8050    -159.9065   
   29.81000      29.8100    -159.9825   
   29.81500      29.8150    -160.0585   
   29.82000      29.8200    -160.1345   
   29.82500      29.8250    -160.2105   
   29.83000      29.8300    -160.2864   
   29.83500      29.8350    -160.3624   
   29.84000      29.8400    -160.4384   
   29.84500      29.8450    -160.5144   
   29.85000      29.8500    -160.5904   
   29.85500      29.8550    -160.6664   
   29.86000      29.8600    -160.7424   
   29.86500      29.8650    -160.8184   
   29.87000      29.8700    -160.8944   
   29.87500      29.8750    -160.9705   
   29.88000      29.8800    -161.0465   
   29.88500      29.8850    -161.1225   
   29.89000      29.8900    -161.1985   
   29.89500      29.8950    -161.2745   
   29.90000      29.9000    -161.3506   
   29.90500      29.9050    -161.4266   
   29.91000      29.9100    -161.5027   
   29.91500      29.9150    -161.5787   
   29.92000      29.9200    -161.6547   
   29.92500      29.9250    -161.7308   
   29.93000      29.9300    -161.8068   
   29.93500      29.9350    -161.8829   
   29.94000      29.9400    -161.9590   
   29.94500      29.9450    -162.0350   
   29.95000      29.9500    -162.1111   
   29.95500      29.9550    -162.1871   
   29.96000      29.9600    -162.2632   
   29.96500      29.9650    -162.3393   
   29.97000      29.9700    -162.4154   
   29.97500      29.9750    -162.4914   
   29.98000      29.9800    -162.5675   
   29.98500      29.9850    -162.6436   
   29.99000      29.9900    -162.7197   
   29.99500      29.9950    -162.7958   
   30.00000      30.0000    -162.8719   
y

          ***** job concluded
1****** HSPICE -- C-2009.03-SP1 32-BIT (May 25 2009) winnt ******               
 ******  
 ** 30 cascaded, 4 paralleled cells

  ******  job statistics summary tnom=  25.000 temp=  25.000 *****

  ******  HSPICE Threads Information  ******
  Command Line Threads Count                  :     1
  Available CPU Count                         :     8
  Actual Model Evaluation(Load) Threads Count :     1
  Actual Solver Threads Count                 :     1


  ******  Circuit Statistics  ******
  # nodes       =      51 # elements   =      97
  # resistors   =      56 # capacitors =       0 # inductors   =       0
  # mutual_inds =       0 # vccs       =       0 # vcvs        =       0
  # cccs        =       0 # ccvs       =       0 # volt_srcs   =       1
  # curr_srcs   =      16 # diodes     =      24 # bjts        =       0
  # jfets       =       0 # mosfets    =       0 # U elements  =       0
  # T elements  =       0 # W elements =       0 # B elements  =       0
  # S elements  =       0 # P elements =       0 # va device   =       0


  ******  Runtime Statistics (seconds)  ******

  analysis           time    # points   tot. iter  conv.iter
  op point           0.00           1           0
  dc sweep           0.76        6001       12031
  readin             0.07
  errchk             0.02
  setup              0.02
  output             0.02


           total memory used          278  kbytes
           total cpu time            0.92 seconds
           total elapsed time        0.96 seconds
           job started at     13:19:10 06/24/2015
           job ended   at     13:19:11 06/24/2015


 Init: hspice initialization file: C:\synopsys\Hspice_C-2009.03-SP1\hspice.ini
  lic: Release hspice token(s) 
