 ****** HSPICE -- C-2009.03-SP1 32-BIT (May 25 2009) winnt ******               
  Copyright (C) 2009 Synopsys, Inc. All Rights Reserved.                        
  Unpublished-rights reserved under US copyright laws.
  This program is protected by law and is subject to the 
  terms and conditions of the license agreement from Synopsys.
  Use of this program is your acceptance to be bound by the 
  license agreement. HSPICE is the trademark of Synopsys, Inc.
  Input File: C:\Users\Administrator\Desktop\MultiLevel\cw2Model.sp             
  lic:  
  lic: FLEXlm: v8.5b 
  lic: USER:   Administrator        HOSTNAME: WIN-HBGPFB5Q4D3 
  lic: HOSTID: "002268384615 005056c00001 005056c00008" PID:      4348 
  lic: Using FLEXlm license file: 
  lic: C:\synopsys\hspice_2009-03.lic 
  lic: Checkout 1 hspice 
  lic: License/Maintenance for hspice will expire on 31-dec-2020/2007.9 
  lic: NODE LOCKED license on hostid "002268384615 005056c00001 005056c00008" 
  lic:   
 Init: read install configuration file: C:\synopsys\Hspice_C-2009.03-SP1\meta.cfg
 Init: hspice initialization file: C:\synopsys\Hspice_C-2009.03-SP1\hspice.ini




1****** HSPICE -- C-2009.03-SP1 32-BIT (May 25 2009) winnt ******               
 ******  
 ** 40 cascaded, 2 paralleled cells

  ******  diode model parameters tnom=  25.000 temp=  25.000 *****
 ********************************************************
 *** common model parameters model name:   0:diode11_****
 ********************************************************

     names  values   units     names  values   units     names  values   units
     -----  ------   -----     -----  ------   -----     -----  ------   -----

   1*** dc breakdown parameters ***
       vb=   0.    volts        ibv=   1.00m amps   

   2*** parasitic resistance parameters ***
       rs=   0.    ohms   

   3*** capacitance parameters ***
       fc= 500.00m              fcs= 500.00m                m= 500.00m        
     mjsw= 330.00m               pb= 800.00m volts        php= 800.00m volts  
       tt=   0.    secs         cjo=   0.    f/area       cjp=   0.    f/pj   

   4*** temperature effect parameters ***
     tlev=   0.               tlevc=   0.                 tcv=   0.    v/deg k
      trs=   0.    /deg         cta=   0.    /deg         ctp=   0.    /deg   
      xti=   3.00            xtitun=   3.00               keg=   1.00         
       eg=   1.11  ev          gap1= 702.00u  ev/deg     gap2=   1.11k  deg   
     ttt1=   0.    /deg        ttt2=   0.    /deg2        tm1=   0.    /deg   
      tm2=   0.    /deg2        tpb=   0.    v/deg k     tphp=   0.    v/deg k
     tref=  25.00   deg c 

   5*** noise parameters ***
       kf=   0.                  af=   1.00         

   ***  level   1  model parameters  ***

    level=   1.00                is=   1.00u amps         jsw=   0.    amps   
        n=   9.00               nbv=   9.00                ik=   0.    amp    
     area=   1.00                pj=   0.                 ikr=   0.    amp    
    expli=   0.    amps      explir=   0.    amps        jtun=   0.    amps   
   jtunsw=   0.    amps        ntun=  30.00         
  
 ********************************************************
 *** common model parameters model name:   0:diode11_****
 ********************************************************

     names  values   units     names  values   units     names  values   units
     -----  ------   -----     -----  ------   -----     -----  ------   -----

   1*** dc breakdown parameters ***
       vb=   0.    volts        ibv=   1.00m amps   

   2*** parasitic resistance parameters ***
       rs=   0.    ohms   

   3*** capacitance parameters ***
       fc= 500.00m              fcs= 500.00m                m= 500.00m        
     mjsw= 330.00m               pb= 800.00m volts        php= 800.00m volts  
       tt=   0.    secs         cjo=   0.    f/area       cjp=   0.    f/pj   

   4*** temperature effect parameters ***
     tlev=   0.               tlevc=   0.                 tcv=   0.    v/deg k
      trs=   0.    /deg         cta=   0.    /deg         ctp=   0.    /deg   
      xti=   3.00            xtitun=   3.00               keg=   1.00         
       eg=   1.11  ev          gap1= 702.00u  ev/deg     gap2=   1.11k  deg   
     ttt1=   0.    /deg        ttt2=   0.    /deg2        tm1=   0.    /deg   
      tm2=   0.    /deg2        tpb=   0.    v/deg k     tphp=   0.    v/deg k
     tref=  25.00   deg c 

   5*** noise parameters ***
       kf=   0.                  af=   1.00         

   ***  level   1  model parameters  ***

    level=   1.00                is=   1.00u amps         jsw=   0.    amps   
        n=  10.50               nbv=  10.50                ik=   0.    amp    
     area=   1.00                pj=   0.                 ikr=   0.    amp    
    expli=   0.    amps      explir=   0.    amps        jtun=   0.    amps   
   jtunsw=   0.    amps        ntun=  30.00         
  
 ********************************************************
 *** common model parameters model name:   0:diode_bp****
 ********************************************************

     names  values   units     names  values   units     names  values   units
     -----  ------   -----     -----  ------   -----     -----  ------   -----

   1*** dc breakdown parameters ***
       vb=   0.    volts        ibv=   1.00m amps   

   2*** parasitic resistance parameters ***
       rs=   0.    ohms   

   3*** capacitance parameters ***
       fc= 500.00m              fcs= 500.00m                m= 500.00m        
     mjsw= 330.00m               pb= 800.00m volts        php= 800.00m volts  
       tt=   0.    secs         cjo=   0.    f/area       cjp=   0.    f/pj   

   4*** temperature effect parameters ***
     tlev=   0.               tlevc=   0.                 tcv=   0.    v/deg k
      trs=   0.    /deg         cta=   0.    /deg         ctp=   0.    /deg   
      xti=   3.00            xtitun=   3.00               keg=   1.00         
       eg=   1.11  ev          gap1= 702.00u  ev/deg     gap2=   1.11k  deg   
     ttt1=   0.    /deg        ttt2=   0.    /deg2        tm1=   0.    /deg   
      tm2=   0.    /deg2        tpb=   0.    v/deg k     tphp=   0.    v/deg k
     tref=  25.00   deg c 

   5*** noise parameters ***
       kf=   0.                  af=   1.00         

   ***  level   1  model parameters  ***

    level=   1.00                is=  10.00u amps         jsw=   0.    amps   
        n=   1.00               nbv=   1.00                ik=   0.    amp    
     area=   1.00                pj=   0.                 ikr=   0.    amp    
    expli=   0.    amps      explir=   0.    amps        jtun=   0.    amps   
   jtunsw=   0.    amps        ntun=  30.00         
  
 ********************************************************
 *** common model parameters model name:   0:diode21_****
 ********************************************************

     names  values   units     names  values   units     names  values   units
     -----  ------   -----     -----  ------   -----     -----  ------   -----

   1*** dc breakdown parameters ***
       vb=   0.    volts        ibv=   1.00m amps   

   2*** parasitic resistance parameters ***
       rs=   0.    ohms   

   3*** capacitance parameters ***
       fc= 500.00m              fcs= 500.00m                m= 500.00m        
     mjsw= 330.00m               pb= 800.00m volts        php= 800.00m volts  
       tt=   0.    secs         cjo=   0.    f/area       cjp=   0.    f/pj   

   4*** temperature effect parameters ***
     tlev=   0.               tlevc=   0.                 tcv=   0.    v/deg k
      trs=   0.    /deg         cta=   0.    /deg         ctp=   0.    /deg   
      xti=   3.00            xtitun=   3.00               keg=   1.00         
       eg=   1.11  ev          gap1= 702.00u  ev/deg     gap2=   1.11k  deg   
     ttt1=   0.    /deg        ttt2=   0.    /deg2        tm1=   0.    /deg   
      tm2=   0.    /deg2        tpb=   0.    v/deg k     tphp=   0.    v/deg k
     tref=  25.00   deg c 

   5*** noise parameters ***
       kf=   0.                  af=   1.00         

   ***  level   1  model parameters  ***

    level=   1.00                is=   1.00u amps         jsw=   0.    amps   
        n=   7.50               nbv=   7.50                ik=   0.    amp    
     area=   1.00                pj=   0.                 ikr=   0.    amp    
    expli=   0.    amps      explir=   0.    amps        jtun=   0.    amps   
   jtunsw=   0.    amps        ntun=  30.00         
  
 ********************************************************
 *** common model parameters model name:   0:diode21_****
 ********************************************************

     names  values   units     names  values   units     names  values   units
     -----  ------   -----     -----  ------   -----     -----  ------   -----

   1*** dc breakdown parameters ***
       vb=   0.    volts        ibv=   1.00m amps   

   2*** parasitic resistance parameters ***
       rs=   0.    ohms   

   3*** capacitance parameters ***
       fc= 500.00m              fcs= 500.00m                m= 500.00m        
     mjsw= 330.00m               pb= 800.00m volts        php= 800.00m volts  
       tt=   0.    secs         cjo=   0.    f/area       cjp=   0.    f/pj   

   4*** temperature effect parameters ***
     tlev=   0.               tlevc=   0.                 tcv=   0.    v/deg k
      trs=   0.    /deg         cta=   0.    /deg         ctp=   0.    /deg   
      xti=   3.00            xtitun=   3.00               keg=   1.00         
       eg=   1.11  ev          gap1= 702.00u  ev/deg     gap2=   1.11k  deg   
     ttt1=   0.    /deg        ttt2=   0.    /deg2        tm1=   0.    /deg   
      tm2=   0.    /deg2        tpb=   0.    v/deg k     tphp=   0.    v/deg k
     tref=  25.00   deg c 

   5*** noise parameters ***
       kf=   0.                  af=   1.00         

   ***  level   1  model parameters  ***

    level=   1.00                is=   1.00u amps         jsw=   0.    amps   
        n=  12.00               nbv=  12.00                ik=   0.    amp    
     area=   1.00                pj=   0.                 ikr=   0.    amp    
    expli=   0.    amps      explir=   0.    amps        jtun=   0.    amps   
   jtunsw=   0.    amps        ntun=  30.00         
  
 ********************************************************
 *** common model parameters model name:   0:diode_bp****
 ********************************************************

     names  values   units     names  values   units     names  values   units
     -----  ------   -----     -----  ------   -----     -----  ------   -----

   1*** dc breakdown parameters ***
       vb=   0.    volts        ibv=   1.00m amps   

   2*** parasitic resistance parameters ***
       rs=   0.    ohms   

   3*** capacitance parameters ***
       fc= 500.00m              fcs= 500.00m                m= 500.00m        
     mjsw= 330.00m               pb= 800.00m volts        php= 800.00m volts  
       tt=   0.    secs         cjo=   0.    f/area       cjp=   0.    f/pj   

   4*** temperature effect parameters ***
     tlev=   0.               tlevc=   0.                 tcv=   0.    v/deg k
      trs=   0.    /deg         cta=   0.    /deg         ctp=   0.    /deg   
      xti=   3.00            xtitun=   3.00               keg=   1.00         
       eg=   1.11  ev          gap1= 702.00u  ev/deg     gap2=   1.11k  deg   
     ttt1=   0.    /deg        ttt2=   0.    /deg2        tm1=   0.    /deg   
      tm2=   0.    /deg2        tpb=   0.    v/deg k     tphp=   0.    v/deg k
     tref=  25.00   deg c 

   5*** noise parameters ***
       kf=   0.                  af=   1.00         

   ***  level   1  model parameters  ***

    level=   1.00                is=  10.00u amps         jsw=   0.    amps   
        n=   1.00               nbv=   1.00                ik=   0.    amp    
     area=   1.00                pj=   0.                 ikr=   0.    amp    
    expli=   0.    amps      explir=   0.    amps        jtun=   0.    amps   
   jtunsw=   0.    amps        ntun=  30.00         
  
 ********************************************************
 *** common model parameters model name:   0:diode213****
 ********************************************************

     names  values   units     names  values   units     names  values   units
     -----  ------   -----     -----  ------   -----     -----  ------   -----

   1*** dc breakdown parameters ***
       vb=   0.    volts        ibv=   1.00m amps   

   2*** parasitic resistance parameters ***
       rs=   0.    ohms   

   3*** capacitance parameters ***
       fc= 500.00m              fcs= 500.00m                m= 500.00m        
     mjsw= 330.00m               pb= 800.00m volts        php= 800.00m volts  
       tt=   0.    secs         cjo=   0.    f/area       cjp=   0.    f/pj   

   4*** temperature effect parameters ***
     tlev=   0.               tlevc=   0.                 tcv=   0.    v/deg k
      trs=   0.    /deg         cta=   0.    /deg         ctp=   0.    /deg   
      xti=   3.00            xtitun=   3.00               keg=   1.00         
       eg=   1.11  ev          gap1= 702.00u  ev/deg     gap2=   1.11k  deg   
     ttt1=   0.    /deg        ttt2=   0.    /deg2        tm1=   0.    /deg   
      tm2=   0.    /deg2        tpb=   0.    v/deg k     tphp=   0.    v/deg k
     tref=  25.00   deg c 

   5*** noise parameters ***
       kf=   0.                  af=   1.00         

   ***  level   1  model parameters  ***

    level=   1.00                is=   1.00u amps         jsw=   0.    amps   
        n=  19.50               nbv=  19.50                ik=   0.    amp    
     area=   1.00                pj=   0.                 ikr=   0.    amp    
    expli=   0.    amps      explir=   0.    amps        jtun=   0.    amps   
   jtunsw=   0.    amps        ntun=  30.00         
  
 ********************************************************
 *** common model parameters model name:   0:diode31_****
 ********************************************************

     names  values   units     names  values   units     names  values   units
     -----  ------   -----     -----  ------   -----     -----  ------   -----

   1*** dc breakdown parameters ***
       vb=   0.    volts        ibv=   1.00m amps   

   2*** parasitic resistance parameters ***
       rs=   0.    ohms   

   3*** capacitance parameters ***
       fc= 500.00m              fcs= 500.00m                m= 500.00m        
     mjsw= 330.00m               pb= 800.00m volts        php= 800.00m volts  
       tt=   0.    secs         cjo=   0.    f/area       cjp=   0.    f/pj   

   4*** temperature effect parameters ***
     tlev=   0.               tlevc=   0.                 tcv=   0.    v/deg k
      trs=   0.    /deg         cta=   0.    /deg         ctp=   0.    /deg   
      xti=   3.00            xtitun=   3.00               keg=   1.00         
       eg=   1.11  ev          gap1= 702.00u  ev/deg     gap2=   1.11k  deg   
     ttt1=   0.    /deg        ttt2=   0.    /deg2        tm1=   0.    /deg   
      tm2=   0.    /deg2        tpb=   0.    v/deg k     tphp=   0.    v/deg k
     tref=  25.00   deg c 

   5*** noise parameters ***
       kf=   0.                  af=   1.00         

   ***  level   1  model parameters  ***

    level=   1.00                is=   1.00u amps         jsw=   0.    amps   
        n=   1.50               nbv=   1.50                ik=   0.    amp    
     area=   1.00                pj=   0.                 ikr=   0.    amp    
    expli=   0.    amps      explir=   0.    amps        jtun=   0.    amps   
   jtunsw=   0.    amps        ntun=  30.00         
  
 ********************************************************
 *** common model parameters model name:   0:diode_bp****
 ********************************************************

     names  values   units     names  values   units     names  values   units
     -----  ------   -----     -----  ------   -----     -----  ------   -----

   1*** dc breakdown parameters ***
       vb=   0.    volts        ibv=   1.00m amps   

   2*** parasitic resistance parameters ***
       rs=   0.    ohms   

   3*** capacitance parameters ***
       fc= 500.00m              fcs= 500.00m                m= 500.00m        
     mjsw= 330.00m               pb= 800.00m volts        php= 800.00m volts  
       tt=   0.    secs         cjo=   0.    f/area       cjp=   0.    f/pj   

   4*** temperature effect parameters ***
     tlev=   0.               tlevc=   0.                 tcv=   0.    v/deg k
      trs=   0.    /deg         cta=   0.    /deg         ctp=   0.    /deg   
      xti=   3.00            xtitun=   3.00               keg=   1.00         
       eg=   1.11  ev          gap1= 702.00u  ev/deg     gap2=   1.11k  deg   
     ttt1=   0.    /deg        ttt2=   0.    /deg2        tm1=   0.    /deg   
      tm2=   0.    /deg2        tpb=   0.    v/deg k     tphp=   0.    v/deg k
     tref=  25.00   deg c 

   5*** noise parameters ***
       kf=   0.                  af=   1.00         

   ***  level   1  model parameters  ***

    level=   1.00                is=  10.00u amps         jsw=   0.    amps   
        n=   1.00               nbv=   1.00                ik=   0.    amp    
     area=   1.00                pj=   0.                 ikr=   0.    amp    
    expli=   0.    amps      explir=   0.    amps        jtun=   0.    amps   
   jtunsw=   0.    amps        ntun=  30.00         
  
 ********************************************************
 *** common model parameters model name:   0:diode12_****
 ********************************************************

     names  values   units     names  values   units     names  values   units
     -----  ------   -----     -----  ------   -----     -----  ------   -----

   1*** dc breakdown parameters ***
       vb=   0.    volts        ibv=   1.00m amps   

   2*** parasitic resistance parameters ***
       rs=   0.    ohms   

   3*** capacitance parameters ***
       fc= 500.00m              fcs= 500.00m                m= 500.00m        
     mjsw= 330.00m               pb= 800.00m volts        php= 800.00m volts  
       tt=   0.    secs         cjo=   0.    f/area       cjp=   0.    f/pj   

   4*** temperature effect parameters ***
     tlev=   0.               tlevc=   0.                 tcv=   0.    v/deg k
      trs=   0.    /deg         cta=   0.    /deg         ctp=   0.    /deg   
      xti=   3.00            xtitun=   3.00               keg=   1.00         
       eg=   1.11  ev          gap1= 702.00u  ev/deg     gap2=   1.11k  deg   
     ttt1=   0.    /deg        ttt2=   0.    /deg2        tm1=   0.    /deg   
      tm2=   0.    /deg2        tpb=   0.    v/deg k     tphp=   0.    v/deg k
     tref=  25.00   deg c 

   5*** noise parameters ***
       kf=   0.                  af=   1.00         

   ***  level   1  model parameters  ***

    level=   1.00                is=   1.00u amps         jsw=   0.    amps   
        n=   9.00               nbv=   9.00                ik=   0.    amp    
     area=   1.00                pj=   0.                 ikr=   0.    amp    
    expli=   0.    amps      explir=   0.    amps        jtun=   0.    amps   
   jtunsw=   0.    amps        ntun=  30.00         
  
 ********************************************************
 *** common model parameters model name:   0:diode12_****
 ********************************************************

     names  values   units     names  values   units     names  values   units
     -----  ------   -----     -----  ------   -----     -----  ------   -----

   1*** dc breakdown parameters ***
       vb=   0.    volts        ibv=   1.00m amps   

   2*** parasitic resistance parameters ***
       rs=   0.    ohms   

   3*** capacitance parameters ***
       fc= 500.00m              fcs= 500.00m                m= 500.00m        
     mjsw= 330.00m               pb= 800.00m volts        php= 800.00m volts  
       tt=   0.    secs         cjo=   0.    f/area       cjp=   0.    f/pj   

   4*** temperature effect parameters ***
     tlev=   0.               tlevc=   0.                 tcv=   0.    v/deg k
      trs=   0.    /deg         cta=   0.    /deg         ctp=   0.    /deg   
      xti=   3.00            xtitun=   3.00               keg=   1.00         
       eg=   1.11  ev          gap1= 702.00u  ev/deg     gap2=   1.11k  deg   
     ttt1=   0.    /deg        ttt2=   0.    /deg2        tm1=   0.    /deg   
      tm2=   0.    /deg2        tpb=   0.    v/deg k     tphp=   0.    v/deg k
     tref=  25.00   deg c 

   5*** noise parameters ***
       kf=   0.                  af=   1.00         

   ***  level   1  model parameters  ***

    level=   1.00                is=   1.00u amps         jsw=   0.    amps   
        n=  10.50               nbv=  10.50                ik=   0.    amp    
     area=   1.00                pj=   0.                 ikr=   0.    amp    
    expli=   0.    amps      explir=   0.    amps        jtun=   0.    amps   
   jtunsw=   0.    amps        ntun=  30.00         
  
 ********************************************************
 *** common model parameters model name:   0:diode_bp****
 ********************************************************

     names  values   units     names  values   units     names  values   units
     -----  ------   -----     -----  ------   -----     -----  ------   -----

   1*** dc breakdown parameters ***
       vb=   0.    volts        ibv=   1.00m amps   

   2*** parasitic resistance parameters ***
       rs=   0.    ohms   

   3*** capacitance parameters ***
       fc= 500.00m              fcs= 500.00m                m= 500.00m        
     mjsw= 330.00m               pb= 800.00m volts        php= 800.00m volts  
       tt=   0.    secs         cjo=   0.    f/area       cjp=   0.    f/pj   

   4*** temperature effect parameters ***
     tlev=   0.               tlevc=   0.                 tcv=   0.    v/deg k
      trs=   0.    /deg         cta=   0.    /deg         ctp=   0.    /deg   
      xti=   3.00            xtitun=   3.00               keg=   1.00         
       eg=   1.11  ev          gap1= 702.00u  ev/deg     gap2=   1.11k  deg   
     ttt1=   0.    /deg        ttt2=   0.    /deg2        tm1=   0.    /deg   
      tm2=   0.    /deg2        tpb=   0.    v/deg k     tphp=   0.    v/deg k
     tref=  25.00   deg c 

   5*** noise parameters ***
       kf=   0.                  af=   1.00         

   ***  level   1  model parameters  ***

    level=   1.00                is=  10.00u amps         jsw=   0.    amps   
        n=   1.00               nbv=   1.00                ik=   0.    amp    
     area=   1.00                pj=   0.                 ikr=   0.    amp    
    expli=   0.    amps      explir=   0.    amps        jtun=   0.    amps   
   jtunsw=   0.    amps        ntun=  30.00         
  
 ********************************************************
 *** common model parameters model name:   0:diode22_****
 ********************************************************

     names  values   units     names  values   units     names  values   units
     -----  ------   -----     -----  ------   -----     -----  ------   -----

   1*** dc breakdown parameters ***
       vb=   0.    volts        ibv=   1.00m amps   

   2*** parasitic resistance parameters ***
       rs=   0.    ohms   

   3*** capacitance parameters ***
       fc= 500.00m              fcs= 500.00m                m= 500.00m        
     mjsw= 330.00m               pb= 800.00m volts        php= 800.00m volts  
       tt=   0.    secs         cjo=   0.    f/area       cjp=   0.    f/pj   

   4*** temperature effect parameters ***
     tlev=   0.               tlevc=   0.                 tcv=   0.    v/deg k
      trs=   0.    /deg         cta=   0.    /deg         ctp=   0.    /deg   
      xti=   3.00            xtitun=   3.00               keg=   1.00         
       eg=   1.11  ev          gap1= 702.00u  ev/deg     gap2=   1.11k  deg   
     ttt1=   0.    /deg        ttt2=   0.    /deg2        tm1=   0.    /deg   
      tm2=   0.    /deg2        tpb=   0.    v/deg k     tphp=   0.    v/deg k
     tref=  25.00   deg c 

   5*** noise parameters ***
       kf=   0.                  af=   1.00         

   ***  level   1  model parameters  ***

    level=   1.00                is=   1.00u amps         jsw=   0.    amps   
        n=   9.00               nbv=   9.00                ik=   0.    amp    
     area=   1.00                pj=   0.                 ikr=   0.    amp    
    expli=   0.    amps      explir=   0.    amps        jtun=   0.    amps   
   jtunsw=   0.    amps        ntun=  30.00         
  
 ********************************************************
 *** common model parameters model name:   0:diode22_****
 ********************************************************

     names  values   units     names  values   units     names  values   units
     -----  ------   -----     -----  ------   -----     -----  ------   -----

   1*** dc breakdown parameters ***
       vb=   0.    volts        ibv=   1.00m amps   

   2*** parasitic resistance parameters ***
       rs=   0.    ohms   

   3*** capacitance parameters ***
       fc= 500.00m              fcs= 500.00m                m= 500.00m        
     mjsw= 330.00m               pb= 800.00m volts        php= 800.00m volts  
       tt=   0.    secs         cjo=   0.    f/area       cjp=   0.    f/pj   

   4*** temperature effect parameters ***
     tlev=   0.               tlevc=   0.                 tcv=   0.    v/deg k
      trs=   0.    /deg         cta=   0.    /deg         ctp=   0.    /deg   
      xti=   3.00            xtitun=   3.00               keg=   1.00         
       eg=   1.11  ev          gap1= 702.00u  ev/deg     gap2=   1.11k  deg   
     ttt1=   0.    /deg        ttt2=   0.    /deg2        tm1=   0.    /deg   
      tm2=   0.    /deg2        tpb=   0.    v/deg k     tphp=   0.    v/deg k
     tref=  25.00   deg c 

   5*** noise parameters ***
       kf=   0.                  af=   1.00         

   ***  level   1  model parameters  ***

    level=   1.00                is=   1.00u amps         jsw=   0.    amps   
        n=  10.50               nbv=  10.50                ik=   0.    amp    
     area=   1.00                pj=   0.                 ikr=   0.    amp    
    expli=   0.    amps      explir=   0.    amps        jtun=   0.    amps   
   jtunsw=   0.    amps        ntun=  30.00         
  
 ********************************************************
 *** common model parameters model name:   0:diode_bp****
 ********************************************************

     names  values   units     names  values   units     names  values   units
     -----  ------   -----     -----  ------   -----     -----  ------   -----

   1*** dc breakdown parameters ***
       vb=   0.    volts        ibv=   1.00m amps   

   2*** parasitic resistance parameters ***
       rs=   0.    ohms   

   3*** capacitance parameters ***
       fc= 500.00m              fcs= 500.00m                m= 500.00m        
     mjsw= 330.00m               pb= 800.00m volts        php= 800.00m volts  
       tt=   0.    secs         cjo=   0.    f/area       cjp=   0.    f/pj   

   4*** temperature effect parameters ***
     tlev=   0.               tlevc=   0.                 tcv=   0.    v/deg k
      trs=   0.    /deg         cta=   0.    /deg         ctp=   0.    /deg   
      xti=   3.00            xtitun=   3.00               keg=   1.00         
       eg=   1.11  ev          gap1= 702.00u  ev/deg     gap2=   1.11k  deg   
     ttt1=   0.    /deg        ttt2=   0.    /deg2        tm1=   0.    /deg   
      tm2=   0.    /deg2        tpb=   0.    v/deg k     tphp=   0.    v/deg k
     tref=  25.00   deg c 

   5*** noise parameters ***
       kf=   0.                  af=   1.00         

   ***  level   1  model parameters  ***

    level=   1.00                is=  10.00u amps         jsw=   0.    amps   
        n=   1.00               nbv=   1.00                ik=   0.    amp    
     area=   1.00                pj=   0.                 ikr=   0.    amp    
    expli=   0.    amps      explir=   0.    amps        jtun=   0.    amps   
   jtunsw=   0.    amps        ntun=  30.00         
  
 ********************************************************
 *** common model parameters model name:   0:diode223****
 ********************************************************

     names  values   units     names  values   units     names  values   units
     -----  ------   -----     -----  ------   -----     -----  ------   -----

   1*** dc breakdown parameters ***
       vb=   0.    volts        ibv=   1.00m amps   

   2*** parasitic resistance parameters ***
       rs=   0.    ohms   

   3*** capacitance parameters ***
       fc= 500.00m              fcs= 500.00m                m= 500.00m        
     mjsw= 330.00m               pb= 800.00m volts        php= 800.00m volts  
       tt=   0.    secs         cjo=   0.    f/area       cjp=   0.    f/pj   

   4*** temperature effect parameters ***
     tlev=   0.               tlevc=   0.                 tcv=   0.    v/deg k
      trs=   0.    /deg         cta=   0.    /deg         ctp=   0.    /deg   
      xti=   3.00            xtitun=   3.00               keg=   1.00         
       eg=   1.11  ev          gap1= 702.00u  ev/deg     gap2=   1.11k  deg   
     ttt1=   0.    /deg        ttt2=   0.    /deg2        tm1=   0.    /deg   
      tm2=   0.    /deg2        tpb=   0.    v/deg k     tphp=   0.    v/deg k
     tref=  25.00   deg c 

   5*** noise parameters ***
       kf=   0.                  af=   1.00         

   ***  level   1  model parameters  ***

    level=   1.00                is=   1.00u amps         jsw=   0.    amps   
        n=  18.00               nbv=  18.00                ik=   0.    amp    
     area=   1.00                pj=   0.                 ikr=   0.    amp    
    expli=   0.    amps      explir=   0.    amps        jtun=   0.    amps   
   jtunsw=   0.    amps        ntun=  30.00         
  
 ********************************************************
 *** common model parameters model name:   0:diode32_****
 ********************************************************

     names  values   units     names  values   units     names  values   units
     -----  ------   -----     -----  ------   -----     -----  ------   -----

   1*** dc breakdown parameters ***
       vb=   0.    volts        ibv=   1.00m amps   

   2*** parasitic resistance parameters ***
       rs=   0.    ohms   

   3*** capacitance parameters ***
       fc= 500.00m              fcs= 500.00m                m= 500.00m        
     mjsw= 330.00m               pb= 800.00m volts        php= 800.00m volts  
       tt=   0.    secs         cjo=   0.    f/area       cjp=   0.    f/pj   

   4*** temperature effect parameters ***
     tlev=   0.               tlevc=   0.                 tcv=   0.    v/deg k
      trs=   0.    /deg         cta=   0.    /deg         ctp=   0.    /deg   
      xti=   3.00            xtitun=   3.00               keg=   1.00         
       eg=   1.11  ev          gap1= 702.00u  ev/deg     gap2=   1.11k  deg   
     ttt1=   0.    /deg        ttt2=   0.    /deg2        tm1=   0.    /deg   
      tm2=   0.    /deg2        tpb=   0.    v/deg k     tphp=   0.    v/deg k
     tref=  25.00   deg c 

   5*** noise parameters ***
       kf=   0.                  af=   1.00         

   ***  level   1  model parameters  ***

    level=   1.00                is=   1.00u amps         jsw=   0.    amps   
        n=   3.00               nbv=   3.00                ik=   0.    amp    
     area=   1.00                pj=   0.                 ikr=   0.    amp    
    expli=   0.    amps      explir=   0.    amps        jtun=   0.    amps   
   jtunsw=   0.    amps        ntun=  30.00         
  
 ********************************************************
 *** common model parameters model name:   0:diode_bp****
 ********************************************************

     names  values   units     names  values   units     names  values   units
     -----  ------   -----     -----  ------   -----     -----  ------   -----

   1*** dc breakdown parameters ***
       vb=   0.    volts        ibv=   1.00m amps   

   2*** parasitic resistance parameters ***
       rs=   0.    ohms   

   3*** capacitance parameters ***
       fc= 500.00m              fcs= 500.00m                m= 500.00m        
     mjsw= 330.00m               pb= 800.00m volts        php= 800.00m volts  
       tt=   0.    secs         cjo=   0.    f/area       cjp=   0.    f/pj   

   4*** temperature effect parameters ***
     tlev=   0.               tlevc=   0.                 tcv=   0.    v/deg k
      trs=   0.    /deg         cta=   0.    /deg         ctp=   0.    /deg   
      xti=   3.00            xtitun=   3.00               keg=   1.00         
       eg=   1.11  ev          gap1= 702.00u  ev/deg     gap2=   1.11k  deg   
     ttt1=   0.    /deg        ttt2=   0.    /deg2        tm1=   0.    /deg   
      tm2=   0.    /deg2        tpb=   0.    v/deg k     tphp=   0.    v/deg k
     tref=  25.00   deg c 

   5*** noise parameters ***
       kf=   0.                  af=   1.00         

   ***  level   1  model parameters  ***

    level=   1.00                is=  10.00u amps         jsw=   0.    amps   
        n=   1.00               nbv=   1.00                ik=   0.    amp    
     area=   1.00                pj=   0.                 ikr=   0.    amp    
    expli=   0.    amps      explir=   0.    amps        jtun=   0.    amps   
   jtunsw=   0.    amps        ntun=  30.00         
  
  **warning** (C:\Users\Administrator\Desktop\MultiLevel\cw2Model.sp:6) r111_1defined in subckt 0                resistance limited to   1.000E-05
 
      
 *****************************************************************
 ******  option summary
 ******
 runlvl  = 3         bypass  = 2         
 ******  
 ** 40 cascaded, 2 paralleled cells

  ******  dc transfer curves tnom=  25.000 temp=  25.000 *****
x

        volt    voltage      current    
                     1           vds    
    0.            0.           4.5018   
    5.00000m      5.0000m      4.5018   
   10.00000m     10.0000m      4.5018   
   15.00000m     15.0000m      4.5018   
   20.00000m     20.0000m      4.5018   
   25.00000m     25.0000m      4.5018   
   30.00000m     30.0000m      4.5018   
   35.00000m     35.0000m      4.5018   
   40.00000m     40.0000m      4.5018   
   45.00000m     45.0000m      4.5018   
   50.00000m     50.0000m      4.5018   
   55.00000m     55.0000m      4.5018   
   60.00000m     60.0000m      4.5018   
   65.00000m     65.0000m      4.5018   
   70.00000m     70.0000m      4.5018   
   75.00000m     75.0000m      4.5018   
   80.00000m     80.0000m      4.5018   
   85.00000m     85.0000m      4.5018   
   90.00000m     90.0000m      4.5018   
   95.00000m     95.0000m      4.5018   
  100.00000m    100.0000m      4.5018   
  105.00000m    105.0000m      4.5018   
  110.00000m    110.0000m      4.5018   
  115.00000m    115.0000m      4.5018   
  120.00000m    120.0000m      4.5018   
  125.00000m    125.0000m      4.5018   
  130.00000m    130.0000m      4.5018   
  135.00000m    135.0000m      4.5018   
  140.00000m    140.0000m      4.5018   
  145.00000m    145.0000m      4.5018   
  150.00000m    150.0000m      4.5018   
  155.00000m    155.0000m      4.5018   
  160.00000m    160.0000m      4.5018   
  165.00000m    165.0000m      4.5018   
  170.00000m    170.0000m      4.5018   
  175.00000m    175.0000m      4.5018   
  180.00000m    180.0000m      4.5018   
  185.00000m    185.0000m      4.5017   
  190.00000m    190.0000m      4.5017   
  195.00000m    195.0000m      4.5017   
  200.00000m    200.0000m      4.5017   
  205.00000m    205.0000m      4.5017   
  210.00000m    210.0000m      4.5017   
  215.00000m    215.0000m      4.5017   
  220.00000m    220.0000m      4.5017   
  225.00000m    225.0000m      4.5017   
  230.00000m    230.0000m      4.5017   
  235.00000m    235.0000m      4.5017   
  240.00000m    240.0000m      4.5017   
  245.00000m    245.0000m      4.5017   
  250.00000m    250.0000m      4.5017   
  255.00000m    255.0000m      4.5017   
  260.00000m    260.0000m      4.5017   
  265.00000m    265.0000m      4.5017   
  270.00000m    270.0000m      4.5017   
  275.00000m    275.0000m      4.5017   
  280.00000m    280.0000m      4.5017   
  285.00000m    285.0000m      4.5017   
  290.00000m    290.0000m      4.5017   
  295.00000m    295.0000m      4.5017   
  300.00000m    300.0000m      4.5017   
  305.00000m    305.0000m      4.5017   
  310.00000m    310.0000m      4.5017   
  315.00000m    315.0000m      4.5017   
  320.00000m    320.0000m      4.5017   
  325.00000m    325.0000m      4.5017   
  330.00000m    330.0000m      4.5017   
  335.00000m    335.0000m      4.5017   
  340.00000m    340.0000m      4.5017   
  345.00000m    345.0000m      4.5017   
  350.00000m    350.0000m      4.5017   
  355.00000m    355.0000m      4.5017   
  360.00000m    360.0000m      4.5017   
  365.00000m    365.0000m      4.5017   
  370.00000m    370.0000m      4.5017   
  375.00000m    375.0000m      4.5017   
  380.00000m    380.0000m      4.5017   
  385.00000m    385.0000m      4.5017   
  390.00000m    390.0000m      4.5017   
  395.00000m    395.0000m      4.5017   
  400.00000m    400.0000m      4.5017   
  405.00000m    405.0000m      4.5017   
  410.00000m    410.0000m      4.5017   
  415.00000m    415.0000m      4.5017   
  420.00000m    420.0000m      4.5017   
  425.00000m    425.0000m      4.5017   
  430.00000m    430.0000m      4.5017   
  435.00000m    435.0000m      4.5016   
  440.00000m    440.0000m      4.5016   
  445.00000m    445.0000m      4.5016   
  450.00000m    450.0000m      4.5016   
  455.00000m    455.0000m      4.5016   
  460.00000m    460.0000m      4.5016   
  465.00000m    465.0000m      4.5016   
  470.00000m    470.0000m      4.5016   
  475.00000m    475.0000m      4.5016   
  480.00000m    480.0000m      4.5016   
  485.00000m    485.0000m      4.5016   
  490.00000m    490.0000m      4.5016   
  495.00000m    495.0000m      4.5016   
  500.00000m    500.0000m      4.5016   
  505.00000m    505.0000m      4.5016   
  510.00000m    510.0000m      4.5016   
  515.00000m    515.0000m      4.5016   
  520.00000m    520.0000m      4.5016   
  525.00000m    525.0000m      4.5016   
  530.00000m    530.0000m      4.5016   
  535.00000m    535.0000m      4.5016   
  540.00000m    540.0000m      4.5016   
  545.00000m    545.0000m      4.5016   
  550.00000m    550.0000m      4.5016   
  555.00000m    555.0000m      4.5016   
  560.00000m    560.0000m      4.5016   
  565.00000m    565.0000m      4.5016   
  570.00000m    570.0000m      4.5016   
  575.00000m    575.0000m      4.5016   
  580.00000m    580.0000m      4.5016   
  585.00000m    585.0000m      4.5016   
  590.00000m    590.0000m      4.5016   
  595.00000m    595.0000m      4.5016   
  600.00000m    600.0000m      4.5016   
  605.00000m    605.0000m      4.5016   
  610.00000m    610.0000m      4.5016   
  615.00000m    615.0000m      4.5016   
  620.00000m    620.0000m      4.5016   
  625.00000m    625.0000m      4.5016   
  630.00000m    630.0000m      4.5016   
  635.00000m    635.0000m      4.5016   
  640.00000m    640.0000m      4.5016   
  645.00000m    645.0000m      4.5016   
  650.00000m    650.0000m      4.5016   
  655.00000m    655.0000m      4.5016   
  660.00000m    660.0000m      4.5016   
  665.00000m    665.0000m      4.5016   
  670.00000m    670.0000m      4.5016   
  675.00000m    675.0000m      4.5016   
  680.00000m    680.0000m      4.5016   
  685.00000m    685.0000m      4.5016   
  690.00000m    690.0000m      4.5015   
  695.00000m    695.0000m      4.5015   
  700.00000m    700.0000m      4.5015   
  705.00000m    705.0000m      4.5015   
  710.00000m    710.0000m      4.5015   
  715.00000m    715.0000m      4.5015   
  720.00000m    720.0000m      4.5015   
  725.00000m    725.0000m      4.5015   
  730.00000m    730.0000m      4.5015   
  735.00000m    735.0000m      4.5015   
  740.00000m    740.0000m      4.5015   
  745.00000m    745.0000m      4.5015   
  750.00000m    750.0000m      4.5015   
  755.00000m    755.0000m      4.5015   
  760.00000m    760.0000m      4.5015   
  765.00000m    765.0000m      4.5015   
  770.00000m    770.0000m      4.5015   
  775.00000m    775.0000m      4.5015   
  780.00000m    780.0000m      4.5015   
  785.00000m    785.0000m      4.5015   
  790.00000m    790.0000m      4.5015   
  795.00000m    795.0000m      4.5015   
  800.00000m    800.0000m      4.5015   
  805.00000m    805.0000m      4.5015   
  810.00000m    810.0000m      4.5015   
  815.00000m    815.0000m      4.5015   
  820.00000m    820.0000m      4.5015   
  825.00000m    825.0000m      4.5015   
  830.00000m    830.0000m      4.5015   
  835.00000m    835.0000m      4.5015   
  840.00000m    840.0000m      4.5015   
  845.00000m    845.0000m      4.5015   
  850.00000m    850.0000m      4.5015   
  855.00000m    855.0000m      4.5015   
  860.00000m    860.0000m      4.5015   
  865.00000m    865.0000m      4.5015   
  870.00000m    870.0000m      4.5015   
  875.00000m    875.0000m      4.5015   
  880.00000m    880.0000m      4.5015   
  885.00000m    885.0000m      4.5015   
  890.00000m    890.0000m      4.5015   
  895.00000m    895.0000m      4.5015   
  900.00000m    900.0000m      4.5015   
  905.00000m    905.0000m      4.5015   
  910.00000m    910.0000m      4.5015   
  915.00000m    915.0000m      4.5015   
  920.00000m    920.0000m      4.5015   
  925.00000m    925.0000m      4.5015   
  930.00000m    930.0000m      4.5015   
  935.00000m    935.0000m      4.5015   
  940.00000m    940.0000m      4.5014   
  945.00000m    945.0000m      4.5014   
  950.00000m    950.0000m      4.5014   
  955.00000m    955.0000m      4.5014   
  960.00000m    960.0000m      4.5014   
  965.00000m    965.0000m      4.5014   
  970.00000m    970.0000m      4.5014   
  975.00000m    975.0000m      4.5014   
  980.00000m    980.0000m      4.5014   
  985.00000m    985.0000m      4.5014   
  990.00000m    990.0000m      4.5014   
  995.00000m    995.0000m      4.5014   
    1.00000       1.0000       4.5014   
    1.00500       1.0050       4.5014   
    1.01000       1.0100       4.5014   
    1.01500       1.0150       4.5014   
    1.02000       1.0200       4.5014   
    1.02500       1.0250       4.5014   
    1.03000       1.0300       4.5014   
    1.03500       1.0350       4.5014   
    1.04000       1.0400       4.5014   
    1.04500       1.0450       4.5014   
    1.05000       1.0500       4.5014   
    1.05500       1.0550       4.5014   
    1.06000       1.0600       4.5014   
    1.06500       1.0650       4.5014   
    1.07000       1.0700       4.5014   
    1.07500       1.0750       4.5014   
    1.08000       1.0800       4.5014   
    1.08500       1.0850       4.5014   
    1.09000       1.0900       4.5014   
    1.09500       1.0950       4.5014   
    1.10000       1.1000       4.5014   
    1.10500       1.1050       4.5014   
    1.11000       1.1100       4.5014   
    1.11500       1.1150       4.5014   
    1.12000       1.1200       4.5014   
    1.12500       1.1250       4.5014   
    1.13000       1.1300       4.5014   
    1.13500       1.1350       4.5014   
    1.14000       1.1400       4.5014   
    1.14500       1.1450       4.5014   
    1.15000       1.1500       4.5014   
    1.15500       1.1550       4.5014   
    1.16000       1.1600       4.5014   
    1.16500       1.1650       4.5014   
    1.17000       1.1700       4.5014   
    1.17500       1.1750       4.5014   
    1.18000       1.1800       4.5014   
    1.18500       1.1850       4.5014   
    1.19000       1.1900       4.5014   
    1.19500       1.1950       4.5013   
    1.20000       1.2000       4.5013   
    1.20500       1.2050       4.5013   
    1.21000       1.2100       4.5013   
    1.21500       1.2150       4.5013   
    1.22000       1.2200       4.5013   
    1.22500       1.2250       4.5013   
    1.23000       1.2300       4.5013   
    1.23500       1.2350       4.5013   
    1.24000       1.2400       4.5013   
    1.24500       1.2450       4.5013   
    1.25000       1.2500       4.5013   
    1.25500       1.2550       4.5013   
    1.26000       1.2600       4.5013   
    1.26500       1.2650       4.5013   
    1.27000       1.2700       4.5013   
    1.27500       1.2750       4.5013   
    1.28000       1.2800       4.5013   
    1.28500       1.2850       4.5013   
    1.29000       1.2900       4.5013   
    1.29500       1.2950       4.5013   
    1.30000       1.3000       4.5013   
    1.30500       1.3050       4.5013   
    1.31000       1.3100       4.5013   
    1.31500       1.3150       4.5013   
    1.32000       1.3200       4.5013   
    1.32500       1.3250       4.5013   
    1.33000       1.3300       4.5013   
    1.33500       1.3350       4.5013   
    1.34000       1.3400       4.5013   
    1.34500       1.3450       4.5013   
    1.35000       1.3500       4.5013   
    1.35500       1.3550       4.5013   
    1.36000       1.3600       4.5013   
    1.36500       1.3650       4.5013   
    1.37000       1.3700       4.5013   
    1.37500       1.3750       4.5013   
    1.38000       1.3800       4.5013   
    1.38500       1.3850       4.5013   
    1.39000       1.3900       4.5013   
    1.39500       1.3950       4.5013   
    1.40000       1.4000       4.5013   
    1.40500       1.4050       4.5013   
    1.41000       1.4100       4.5013   
    1.41500       1.4150       4.5013   
    1.42000       1.4200       4.5013   
    1.42500       1.4250       4.5013   
    1.43000       1.4300       4.5013   
    1.43500       1.4350       4.5013   
    1.44000       1.4400       4.5013   
    1.44500       1.4450       4.5012   
    1.45000       1.4500       4.5012   
    1.45500       1.4550       4.5012   
    1.46000       1.4600       4.5012   
    1.46500       1.4650       4.5012   
    1.47000       1.4700       4.5012   
    1.47500       1.4750       4.5012   
    1.48000       1.4800       4.5012   
    1.48500       1.4850       4.5012   
    1.49000       1.4900       4.5012   
    1.49500       1.4950       4.5012   
    1.50000       1.5000       4.5012   
    1.50500       1.5050       4.5012   
    1.51000       1.5100       4.5012   
    1.51500       1.5150       4.5012   
    1.52000       1.5200       4.5012   
    1.52500       1.5250       4.5012   
    1.53000       1.5300       4.5012   
    1.53500       1.5350       4.5012   
    1.54000       1.5400       4.5012   
    1.54500       1.5450       4.5012   
    1.55000       1.5500       4.5012   
    1.55500       1.5550       4.5012   
    1.56000       1.5600       4.5012   
    1.56500       1.5650       4.5012   
    1.57000       1.5700       4.5012   
    1.57500       1.5750       4.5012   
    1.58000       1.5800       4.5012   
    1.58500       1.5850       4.5012   
    1.59000       1.5900       4.5012   
    1.59500       1.5950       4.5012   
    1.60000       1.6000       4.5012   
    1.60500       1.6050       4.5012   
    1.61000       1.6100       4.5012   
    1.61500       1.6150       4.5012   
    1.62000       1.6200       4.5012   
    1.62500       1.6250       4.5012   
    1.63000       1.6300       4.5012   
    1.63500       1.6350       4.5012   
    1.64000       1.6400       4.5012   
    1.64500       1.6450       4.5012   
    1.65000       1.6500       4.5012   
    1.65500       1.6550       4.5012   
    1.66000       1.6600       4.5012   
    1.66500       1.6650       4.5012   
    1.67000       1.6700       4.5012   
    1.67500       1.6750       4.5012   
    1.68000       1.6800       4.5012   
    1.68500       1.6850       4.5012   
    1.69000       1.6900       4.5012   
    1.69500       1.6950       4.5012   
    1.70000       1.7000       4.5011   
    1.70500       1.7050       4.5011   
    1.71000       1.7100       4.5011   
    1.71500       1.7150       4.5011   
    1.72000       1.7200       4.5011   
    1.72500       1.7250       4.5011   
    1.73000       1.7300       4.5011   
    1.73500       1.7350       4.5011   
    1.74000       1.7400       4.5011   
    1.74500       1.7450       4.5011   
    1.75000       1.7500       4.5011   
    1.75500       1.7550       4.5011   
    1.76000       1.7600       4.5011   
    1.76500       1.7650       4.5011   
    1.77000       1.7700       4.5011   
    1.77500       1.7750       4.5011   
    1.78000       1.7800       4.5011   
    1.78500       1.7850       4.5011   
    1.79000       1.7900       4.5011   
    1.79500       1.7950       4.5011   
    1.80000       1.8000       4.5011   
    1.80500       1.8050       4.5011   
    1.81000       1.8100       4.5011   
    1.81500       1.8150       4.5011   
    1.82000       1.8200       4.5011   
    1.82500       1.8250       4.5011   
    1.83000       1.8300       4.5011   
    1.83500       1.8350       4.5011   
    1.84000       1.8400       4.5011   
    1.84500       1.8450       4.5011   
    1.85000       1.8500       4.5011   
    1.85500       1.8550       4.5011   
    1.86000       1.8600       4.5011   
    1.86500       1.8650       4.5011   
    1.87000       1.8700       4.5011   
    1.87500       1.8750       4.5011   
    1.88000       1.8800       4.5011   
    1.88500       1.8850       4.5011   
    1.89000       1.8900       4.5011   
    1.89500       1.8950       4.5011   
    1.90000       1.9000       4.5011   
    1.90500       1.9050       4.5011   
    1.91000       1.9100       4.5011   
    1.91500       1.9150       4.5011   
    1.92000       1.9200       4.5011   
    1.92500       1.9250       4.5011   
    1.93000       1.9300       4.5011   
    1.93500       1.9350       4.5011   
    1.94000       1.9400       4.5011   
    1.94500       1.9450       4.5011   
    1.95000       1.9500       4.5010   
    1.95500       1.9550       4.5010   
    1.96000       1.9600       4.5010   
    1.96500       1.9650       4.5010   
    1.97000       1.9700       4.5010   
    1.97500       1.9750       4.5010   
    1.98000       1.9800       4.5010   
    1.98500       1.9850       4.5010   
    1.99000       1.9900       4.5010   
    1.99500       1.9950       4.5010   
    2.00000       2.0000       4.5010   
    2.00500       2.0050       4.5010   
    2.01000       2.0100       4.5010   
    2.01500       2.0150       4.5010   
    2.02000       2.0200       4.5010   
    2.02500       2.0250       4.5010   
    2.03000       2.0300       4.5010   
    2.03500       2.0350       4.5010   
    2.04000       2.0400       4.5010   
    2.04500       2.0450       4.5010   
    2.05000       2.0500       4.5010   
    2.05500       2.0550       4.5010   
    2.06000       2.0600       4.5010   
    2.06500       2.0650       4.5010   
    2.07000       2.0700       4.5010   
    2.07500       2.0750       4.5010   
    2.08000       2.0800       4.5010   
    2.08500       2.0850       4.5010   
    2.09000       2.0900       4.5010   
    2.09500       2.0950       4.5010   
    2.10000       2.1000       4.5010   
    2.10500       2.1050       4.5010   
    2.11000       2.1100       4.5010   
    2.11500       2.1150       4.5010   
    2.12000       2.1200       4.5010   
    2.12500       2.1250       4.5010   
    2.13000       2.1300       4.5010   
    2.13500       2.1350       4.5010   
    2.14000       2.1400       4.5010   
    2.14500       2.1450       4.5010   
    2.15000       2.1500       4.5010   
    2.15500       2.1550       4.5010   
    2.16000       2.1600       4.5010   
    2.16500       2.1650       4.5010   
    2.17000       2.1700       4.5010   
    2.17500       2.1750       4.5010   
    2.18000       2.1800       4.5010   
    2.18500       2.1850       4.5010   
    2.19000       2.1900       4.5010   
    2.19500       2.1950       4.5010   
    2.20000       2.2000       4.5010   
    2.20500       2.2050       4.5009   
    2.21000       2.2100       4.5009   
    2.21500       2.2150       4.5009   
    2.22000       2.2200       4.5009   
    2.22500       2.2250       4.5009   
    2.23000       2.2300       4.5009   
    2.23500       2.2350       4.5009   
    2.24000       2.2400       4.5009   
    2.24500       2.2450       4.5009   
    2.25000       2.2500       4.5009   
    2.25500       2.2550       4.5009   
    2.26000       2.2600       4.5009   
    2.26500       2.2650       4.5009   
    2.27000       2.2700       4.5009   
    2.27500       2.2750       4.5009   
    2.28000       2.2800       4.5009   
    2.28500       2.2850       4.5009   
    2.29000       2.2900       4.5009   
    2.29500       2.2950       4.5009   
    2.30000       2.3000       4.5009   
    2.30500       2.3050       4.5009   
    2.31000       2.3100       4.5009   
    2.31500       2.3150       4.5009   
    2.32000       2.3200       4.5009   
    2.32500       2.3250       4.5009   
    2.33000       2.3300       4.5009   
    2.33500       2.3350       4.5009   
    2.34000       2.3400       4.5009   
    2.34500       2.3450       4.5009   
    2.35000       2.3500       4.5009   
    2.35500       2.3550       4.5009   
    2.36000       2.3600       4.5009   
    2.36500       2.3650       4.5009   
    2.37000       2.3700       4.5009   
    2.37500       2.3750       4.5009   
    2.38000       2.3800       4.5009   
    2.38500       2.3850       4.5009   
    2.39000       2.3900       4.5009   
    2.39500       2.3950       4.5009   
    2.40000       2.4000       4.5009   
    2.40500       2.4050       4.5009   
    2.41000       2.4100       4.5009   
    2.41500       2.4150       4.5009   
    2.42000       2.4200       4.5009   
    2.42500       2.4250       4.5009   
    2.43000       2.4300       4.5009   
    2.43500       2.4350       4.5009   
    2.44000       2.4400       4.5009   
    2.44500       2.4450       4.5009   
    2.45000       2.4500       4.5009   
    2.45500       2.4550       4.5008   
    2.46000       2.4600       4.5008   
    2.46500       2.4650       4.5008   
    2.47000       2.4700       4.5008   
    2.47500       2.4750       4.5008   
    2.48000       2.4800       4.5008   
    2.48500       2.4850       4.5008   
    2.49000       2.4900       4.5008   
    2.49500       2.4950       4.5008   
    2.50000       2.5000       4.5008   
    2.50500       2.5050       4.5008   
    2.51000       2.5100       4.5008   
    2.51500       2.5150       4.5008   
    2.52000       2.5200       4.5008   
    2.52500       2.5250       4.5008   
    2.53000       2.5300       4.5008   
    2.53500       2.5350       4.5008   
    2.54000       2.5400       4.5008   
    2.54500       2.5450       4.5008   
    2.55000       2.5500       4.5008   
    2.55500       2.5550       4.5008   
    2.56000       2.5600       4.5008   
    2.56500       2.5650       4.5008   
    2.57000       2.5700       4.5008   
    2.57500       2.5750       4.5008   
    2.58000       2.5800       4.5008   
    2.58500       2.5850       4.5008   
    2.59000       2.5900       4.5008   
    2.59500       2.5950       4.5008   
    2.60000       2.6000       4.5008   
    2.60500       2.6050       4.5008   
    2.61000       2.6100       4.5008   
    2.61500       2.6150       4.5008   
    2.62000       2.6200       4.5008   
    2.62500       2.6250       4.5008   
    2.63000       2.6300       4.5008   
    2.63500       2.6350       4.5008   
    2.64000       2.6400       4.5008   
    2.64500       2.6450       4.5008   
    2.65000       2.6500       4.5008   
    2.65500       2.6550       4.5008   
    2.66000       2.6600       4.5008   
    2.66500       2.6650       4.5008   
    2.67000       2.6700       4.5008   
    2.67500       2.6750       4.5008   
    2.68000       2.6800       4.5008   
    2.68500       2.6850       4.5008   
    2.69000       2.6900       4.5008   
    2.69500       2.6950       4.5008   
    2.70000       2.7000       4.5008   
    2.70500       2.7050       4.5007   
    2.71000       2.7100       4.5007   
    2.71500       2.7150       4.5007   
    2.72000       2.7200       4.5007   
    2.72500       2.7250       4.5007   
    2.73000       2.7300       4.5007   
    2.73500       2.7350       4.5007   
    2.74000       2.7400       4.5007   
    2.74500       2.7450       4.5007   
    2.75000       2.7500       4.5007   
    2.75500       2.7550       4.5007   
    2.76000       2.7600       4.5007   
    2.76500       2.7650       4.5007   
    2.77000       2.7700       4.5007   
    2.77500       2.7750       4.5007   
    2.78000       2.7800       4.5007   
    2.78500       2.7850       4.5007   
    2.79000       2.7900       4.5007   
    2.79500       2.7950       4.5007   
    2.80000       2.8000       4.5007   
    2.80500       2.8050       4.5007   
    2.81000       2.8100       4.5007   
    2.81500       2.8150       4.5007   
    2.82000       2.8200       4.5007   
    2.82500       2.8250       4.5007   
    2.83000       2.8300       4.5007   
    2.83500       2.8350       4.5007   
    2.84000       2.8400       4.5007   
    2.84500       2.8450       4.5007   
    2.85000       2.8500       4.5007   
    2.85500       2.8550       4.5007   
    2.86000       2.8600       4.5007   
    2.86500       2.8650       4.5007   
    2.87000       2.8700       4.5007   
    2.87500       2.8750       4.5007   
    2.88000       2.8800       4.5007   
    2.88500       2.8850       4.5007   
    2.89000       2.8900       4.5007   
    2.89500       2.8950       4.5007   
    2.90000       2.9000       4.5007   
    2.90500       2.9050       4.5007   
    2.91000       2.9100       4.5007   
    2.91500       2.9150       4.5007   
    2.92000       2.9200       4.5007   
    2.92500       2.9250       4.5007   
    2.93000       2.9300       4.5007   
    2.93500       2.9350       4.5007   
    2.94000       2.9400       4.5007   
    2.94500       2.9450       4.5007   
    2.95000       2.9500       4.5006   
    2.95500       2.9550       4.5006   
    2.96000       2.9600       4.5006   
    2.96500       2.9650       4.5006   
    2.97000       2.9700       4.5006   
    2.97500       2.9750       4.5006   
    2.98000       2.9800       4.5006   
    2.98500       2.9850       4.5006   
    2.99000       2.9900       4.5006   
    2.99500       2.9950       4.5006   
    3.00000       3.0000       4.5006   
    3.00500       3.0050       4.5006   
    3.01000       3.0100       4.5006   
    3.01500       3.0150       4.5006   
    3.02000       3.0200       4.5006   
    3.02500       3.0250       4.5006   
    3.03000       3.0300       4.5006   
    3.03500       3.0350       4.5006   
    3.04000       3.0400       4.5006   
    3.04500       3.0450       4.5006   
    3.05000       3.0500       4.5006   
    3.05500       3.0550       4.5006   
    3.06000       3.0600       4.5006   
    3.06500       3.0650       4.5006   
    3.07000       3.0700       4.5006   
    3.07500       3.0750       4.5006   
    3.08000       3.0800       4.5006   
    3.08500       3.0850       4.5006   
    3.09000       3.0900       4.5006   
    3.09500       3.0950       4.5006   
    3.10000       3.1000       4.5006   
    3.10500       3.1050       4.5006   
    3.11000       3.1100       4.5006   
    3.11500       3.1150       4.5006   
    3.12000       3.1200       4.5006   
    3.12500       3.1250       4.5006   
    3.13000       3.1300       4.5006   
    3.13500       3.1350       4.5006   
    3.14000       3.1400       4.5006   
    3.14500       3.1450       4.5006   
    3.15000       3.1500       4.5006   
    3.15500       3.1550       4.5006   
    3.16000       3.1600       4.5006   
    3.16500       3.1650       4.5006   
    3.17000       3.1700       4.5006   
    3.17500       3.1750       4.5005   
    3.18000       3.1800       4.5005   
    3.18500       3.1850       4.5005   
    3.19000       3.1900       4.5005   
    3.19500       3.1950       4.5005   
    3.20000       3.2000       4.5005   
    3.20500       3.2050       4.5005   
    3.21000       3.2100       4.5005   
    3.21500       3.2150       4.5005   
    3.22000       3.2200       4.5005   
    3.22500       3.2250       4.5005   
    3.23000       3.2300       4.5005   
    3.23500       3.2350       4.5005   
    3.24000       3.2400       4.5005   
    3.24500       3.2450       4.5005   
    3.25000       3.2500       4.5005   
    3.25500       3.2550       4.5005   
    3.26000       3.2600       4.5005   
    3.26500       3.2650       4.5005   
    3.27000       3.2700       4.5005   
    3.27500       3.2750       4.5005   
    3.28000       3.2800       4.5005   
    3.28500       3.2850       4.5005   
    3.29000       3.2900       4.5005   
    3.29500       3.2950       4.5005   
    3.30000       3.3000       4.5005   
    3.30500       3.3050       4.5005   
    3.31000       3.3100       4.5005   
    3.31500       3.3150       4.5005   
    3.32000       3.3200       4.5005   
    3.32500       3.3250       4.5005   
    3.33000       3.3300       4.5005   
    3.33500       3.3350       4.5005   
    3.34000       3.3400       4.5005   
    3.34500       3.3450       4.5005   
    3.35000       3.3500       4.5005   
    3.35500       3.3550       4.5005   
    3.36000       3.3600       4.5005   
    3.36500       3.3650       4.5005   
    3.37000       3.3700       4.5005   
    3.37500       3.3750       4.5005   
    3.38000       3.3800       4.5004   
    3.38500       3.3850       4.5004   
    3.39000       3.3900       4.5004   
    3.39500       3.3950       4.5004   
    3.40000       3.4000       4.5004   
    3.40500       3.4050       4.5004   
    3.41000       3.4100       4.5004   
    3.41500       3.4150       4.5004   
    3.42000       3.4200       4.5004   
    3.42500       3.4250       4.5004   
    3.43000       3.4300       4.5004   
    3.43500       3.4350       4.5004   
    3.44000       3.4400       4.5004   
    3.44500       3.4450       4.5004   
    3.45000       3.4500       4.5004   
    3.45500       3.4550       4.5004   
    3.46000       3.4600       4.5004   
    3.46500       3.4650       4.5004   
    3.47000       3.4700       4.5004   
    3.47500       3.4750       4.5004   
    3.48000       3.4800       4.5004   
    3.48500       3.4850       4.5004   
    3.49000       3.4900       4.5004   
    3.49500       3.4950       4.5004   
    3.50000       3.5000       4.5004   
    3.50500       3.5050       4.5004   
    3.51000       3.5100       4.5004   
    3.51500       3.5150       4.5004   
    3.52000       3.5200       4.5004   
    3.52500       3.5250       4.5004   
    3.53000       3.5300       4.5004   
    3.53500       3.5350       4.5004   
    3.54000       3.5400       4.5004   
    3.54500       3.5450       4.5004   
    3.55000       3.5500       4.5003   
    3.55500       3.5550       4.5003   
    3.56000       3.5600       4.5003   
    3.56500       3.5650       4.5003   
    3.57000       3.5700       4.5003   
    3.57500       3.5750       4.5003   
    3.58000       3.5800       4.5003   
    3.58500       3.5850       4.5003   
    3.59000       3.5900       4.5003   
    3.59500       3.5950       4.5003   
    3.60000       3.6000       4.5003   
    3.60500       3.6050       4.5003   
    3.61000       3.6100       4.5003   
    3.61500       3.6150       4.5003   
    3.62000       3.6200       4.5003   
    3.62500       3.6250       4.5003   
    3.63000       3.6300       4.5003   
    3.63500       3.6350       4.5003   
    3.64000       3.6400       4.5003   
    3.64500       3.6450       4.5003   
    3.65000       3.6500       4.5003   
    3.65500       3.6550       4.5003   
    3.66000       3.6600       4.5003   
    3.66500       3.6650       4.5003   
    3.67000       3.6700       4.5003   
    3.67500       3.6750       4.5003   
    3.68000       3.6800       4.5003   
    3.68500       3.6850       4.5002   
    3.69000       3.6900       4.5002   
    3.69500       3.6950       4.5002   
    3.70000       3.7000       4.5002   
    3.70500       3.7050       4.5002   
    3.71000       3.7100       4.5002   
    3.71500       3.7150       4.5002   
    3.72000       3.7200       4.5002   
    3.72500       3.7250       4.5002   
    3.73000       3.7300       4.5002   
    3.73500       3.7350       4.5002   
    3.74000       3.7400       4.5002   
    3.74500       3.7450       4.5002   
    3.75000       3.7500       4.5002   
    3.75500       3.7550       4.5002   
    3.76000       3.7600       4.5002   
    3.76500       3.7650       4.5002   
    3.77000       3.7700       4.5002   
    3.77500       3.7750       4.5002   
    3.78000       3.7800       4.5002   
    3.78500       3.7850       4.5002   
    3.79000       3.7900       4.5001   
    3.79500       3.7950       4.5001   
    3.80000       3.8000       4.5001   
    3.80500       3.8050       4.5001   
    3.81000       3.8100       4.5001   
    3.81500       3.8150       4.5001   
    3.82000       3.8200       4.5001   
    3.82500       3.8250       4.5001   
    3.83000       3.8300       4.5001   
    3.83500       3.8350       4.5001   
    3.84000       3.8400       4.5001   
    3.84500       3.8450       4.5001   
    3.85000       3.8500       4.5001   
    3.85500       3.8550       4.5001   
    3.86000       3.8600       4.5001   
    3.86500       3.8650       4.5001   
    3.87000       3.8700       4.5001   
    3.87500       3.8750       4.5000   
    3.88000       3.8800       4.5000   
    3.88500       3.8850       4.5000   
    3.89000       3.8900       4.5000   
    3.89500       3.8950       4.5000   
    3.90000       3.9000       4.5000   
    3.90500       3.9050       4.5000   
    3.91000       3.9100       4.5000   
    3.91500       3.9150       4.5000   
    3.92000       3.9200       4.5000   
    3.92500       3.9250       4.5000   
    3.93000       3.9300       4.5000   
    3.93500       3.9350       4.5000   
    3.94000       3.9400       4.5000   
    3.94500       3.9450       4.4999   
    3.95000       3.9500       4.4999   
    3.95500       3.9550       4.4999   
    3.96000       3.9600       4.4999   
    3.96500       3.9650       4.4999   
    3.97000       3.9700       4.4999   
    3.97500       3.9750       4.4999   
    3.98000       3.9800       4.4999   
    3.98500       3.9850       4.4999   
    3.99000       3.9900       4.4999   
    3.99500       3.9950       4.4999   
    4.00000       4.0000       4.4999   
    4.00500       4.0050       4.4998   
    4.01000       4.0100       4.4998   
    4.01500       4.0150       4.4998   
    4.02000       4.0200       4.4998   
    4.02500       4.0250       4.4998   
    4.03000       4.0300       4.4998   
    4.03500       4.0350       4.4998   
    4.04000       4.0400       4.4998   
    4.04500       4.0450       4.4998   
    4.05000       4.0500       4.4998   
    4.05500       4.0550       4.4997   
    4.06000       4.0600       4.4997   
    4.06500       4.0650       4.4997   
    4.07000       4.0700       4.4997   
    4.07500       4.0750       4.4997   
    4.08000       4.0800       4.4997   
    4.08500       4.0850       4.4997   
    4.09000       4.0900       4.4997   
    4.09500       4.0950       4.4997   
    4.10000       4.1000       4.4996   
    4.10500       4.1050       4.4996   
    4.11000       4.1100       4.4996   
    4.11500       4.1150       4.4996   
    4.12000       4.1200       4.4996   
    4.12500       4.1250       4.4996   
    4.13000       4.1300       4.4996   
    4.13500       4.1350       4.4996   
    4.14000       4.1400       4.4995   
    4.14500       4.1450       4.4995   
    4.15000       4.1500       4.4995   
    4.15500       4.1550       4.4995   
    4.16000       4.1600       4.4995   
    4.16500       4.1650       4.4995   
    4.17000       4.1700       4.4995   
    4.17500       4.1750       4.4994   
    4.18000       4.1800       4.4994   
    4.18500       4.1850       4.4994   
    4.19000       4.1900       4.4994   
    4.19500       4.1950       4.4994   
    4.20000       4.2000       4.4994   
    4.20500       4.2050       4.4993   
    4.21000       4.2100       4.4993   
    4.21500       4.2150       4.4993   
    4.22000       4.2200       4.4993   
    4.22500       4.2250       4.4993   
    4.23000       4.2300       4.4992   
    4.23500       4.2350       4.4992   
    4.24000       4.2400       4.4992   
    4.24500       4.2450       4.4992   
    4.25000       4.2500       4.4992   
    4.25500       4.2550       4.4991   
    4.26000       4.2600       4.4991   
    4.26500       4.2650       4.4991   
    4.27000       4.2700       4.4991   
    4.27500       4.2750       4.4991   
    4.28000       4.2800       4.4990   
    4.28500       4.2850       4.4990   
    4.29000       4.2900       4.4990   
    4.29500       4.2950       4.4990   
    4.30000       4.3000       4.4989   
    4.30500       4.3050       4.4989   
    4.31000       4.3100       4.4989   
    4.31500       4.3150       4.4989   
    4.32000       4.3200       4.4988   
    4.32500       4.3250       4.4988   
    4.33000       4.3300       4.4988   
    4.33500       4.3350       4.4988   
    4.34000       4.3400       4.4987   
    4.34500       4.3450       4.4987   
    4.35000       4.3500       4.4987   
    4.35500       4.3550       4.4987   
    4.36000       4.3600       4.4986   
    4.36500       4.3650       4.4986   
    4.37000       4.3700       4.4986   
    4.37500       4.3750       4.4985   
    4.38000       4.3800       4.4985   
    4.38500       4.3850       4.4985   
    4.39000       4.3900       4.4984   
    4.39500       4.3950       4.4984   
    4.40000       4.4000       4.4984   
    4.40500       4.4050       4.4983   
    4.41000       4.4100       4.4983   
    4.41500       4.4150       4.4983   
    4.42000       4.4200       4.4982   
    4.42500       4.4250       4.4982   
    4.43000       4.4300       4.4982   
    4.43500       4.4350       4.4981   
    4.44000       4.4400       4.4981   
    4.44500       4.4450       4.4980   
    4.45000       4.4500       4.4980   
    4.45500       4.4550       4.4980   
    4.46000       4.4600       4.4979   
    4.46500       4.4650       4.4979   
    4.47000       4.4700       4.4978   
    4.47500       4.4750       4.4978   
    4.48000       4.4800       4.4977   
    4.48500       4.4850       4.4977   
    4.49000       4.4900       4.4976   
    4.49500       4.4950       4.4976   
    4.50000       4.5000       4.4975   
    4.50500       4.5050       4.4975   
    4.51000       4.5100       4.4974   
    4.51500       4.5150       4.4974   
    4.52000       4.5200       4.4973   
    4.52500       4.5250       4.4973   
    4.53000       4.5300       4.4972   
    4.53500       4.5350       4.4972   
    4.54000       4.5400       4.4971   
    4.54500       4.5450       4.4971   
    4.55000       4.5500       4.4970   
    4.55500       4.5550       4.4970   
    4.56000       4.5600       4.4969   
    4.56500       4.5650       4.4968   
    4.57000       4.5700       4.4968   
    4.57500       4.5750       4.4967   
    4.58000       4.5800       4.4966   
    4.58500       4.5850       4.4966   
    4.59000       4.5900       4.4965   
    4.59500       4.5950       4.4964   
    4.60000       4.6000       4.4964   
    4.60500       4.6050       4.4963   
    4.61000       4.6100       4.4962   
    4.61500       4.6150       4.4962   
    4.62000       4.6200       4.4961   
    4.62500       4.6250       4.4960   
    4.63000       4.6300       4.4959   
    4.63500       4.6350       4.4959   
    4.64000       4.6400       4.4958   
    4.64500       4.6450       4.4957   
    4.65000       4.6500       4.4956   
    4.65500       4.6550       4.4955   
    4.66000       4.6600       4.4954   
    4.66500       4.6650       4.4954   
    4.67000       4.6700       4.4953   
    4.67500       4.6750       4.4952   
    4.68000       4.6800       4.4951   
    4.68500       4.6850       4.4950   
    4.69000       4.6900       4.4949   
    4.69500       4.6950       4.4948   
    4.70000       4.7000       4.4947   
    4.70500       4.7050       4.4946   
    4.71000       4.7100       4.4945   
    4.71500       4.7150       4.4944   
    4.72000       4.7200       4.4943   
    4.72500       4.7250       4.4942   
    4.73000       4.7300       4.4941   
    4.73500       4.7350       4.4940   
    4.74000       4.7400       4.4938   
    4.74500       4.7450       4.4937   
    4.75000       4.7500       4.4936   
    4.75500       4.7550       4.4935   
    4.76000       4.7600       4.4934   
    4.76500       4.7650       4.4932   
    4.77000       4.7700       4.4931   
    4.77500       4.7750       4.4930   
    4.78000       4.7800       4.4929   
    4.78500       4.7850       4.4927   
    4.79000       4.7900       4.4926   
    4.79500       4.7950       4.4924   
    4.80000       4.8000       4.4923   
    4.80500       4.8050       4.4922   
    4.81000       4.8100       4.4920   
    4.81500       4.8150       4.4919   
    4.82000       4.8200       4.4917   
    4.82500       4.8250       4.4916   
    4.83000       4.8300       4.4914   
    4.83500       4.8350       4.4912   
    4.84000       4.8400       4.4911   
    4.84500       4.8450       4.4909   
    4.85000       4.8500       4.4907   
    4.85500       4.8550       4.4906   
    4.86000       4.8600       4.4904   
    4.86500       4.8650       4.4902   
    4.87000       4.8700       4.4900   
    4.87500       4.8750       4.4898   
    4.88000       4.8800       4.4897   
    4.88500       4.8850       4.4895   
    4.89000       4.8900       4.4893   
    4.89500       4.8950       4.4891   
    4.90000       4.9000       4.4889   
    4.90500       4.9050       4.4887   
    4.91000       4.9100       4.4885   
    4.91500       4.9150       4.4882   
    4.92000       4.9200       4.4880   
    4.92500       4.9250       4.4878   
    4.93000       4.9300       4.4876   
    4.93500       4.9350       4.4874   
    4.94000       4.9400       4.4871   
    4.94500       4.9450       4.4869   
    4.95000       4.9500       4.4866   
    4.95500       4.9550       4.4864   
    4.96000       4.9600       4.4861   
    4.96500       4.9650       4.4859   
    4.97000       4.9700       4.4856   
    4.97500       4.9750       4.4854   
    4.98000       4.9800       4.4851   
    4.98500       4.9850       4.4848   
    4.99000       4.9900       4.4846   
    4.99500       4.9950       4.4843   
    5.00000       5.0000       4.4840   
    5.00500       5.0050       4.4837   
    5.01000       5.0100       4.4834   
    5.01500       5.0150       4.4831   
    5.02000       5.0200       4.4828   
    5.02500       5.0250       4.4825   
    5.03000       5.0300       4.4821   
    5.03500       5.0350       4.4818   
    5.04000       5.0400       4.4815   
    5.04500       5.0450       4.4812   
    5.05000       5.0500       4.4808   
    5.05500       5.0550       4.4805   
    5.06000       5.0600       4.4801   
    5.06500       5.0650       4.4798   
    5.07000       5.0700       4.4794   
    5.07500       5.0750       4.4790   
    5.08000       5.0800       4.4786   
    5.08500       5.0850       4.4782   
    5.09000       5.0900       4.4779   
    5.09500       5.0950       4.4775   
    5.10000       5.1000       4.4770   
    5.10500       5.1050       4.4766   
    5.11000       5.1100       4.4762   
    5.11500       5.1150       4.4758   
    5.12000       5.1200       4.4753   
    5.12500       5.1250       4.4749   
    5.13000       5.1300       4.4745   
    5.13500       5.1350       4.4740   
    5.14000       5.1400       4.4735   
    5.14500       5.1450       4.4731   
    5.15000       5.1500       4.4726   
    5.15500       5.1550       4.4721   
    5.16000       5.1600       4.4716   
    5.16500       5.1650       4.4711   
    5.17000       5.1700       4.4706   
    5.17500       5.1750       4.4700   
    5.18000       5.1800       4.4695   
    5.18500       5.1850       4.4689   
    5.19000       5.1900       4.4684   
    5.19500       5.1950       4.4678   
    5.20000       5.2000       4.4673   
    5.20500       5.2050       4.4667   
    5.21000       5.2100       4.4661   
    5.21500       5.2150       4.4655   
    5.22000       5.2200       4.4649   
    5.22500       5.2250       4.4643   
    5.23000       5.2300       4.4636   
    5.23500       5.2350       4.4630   
    5.24000       5.2400       4.4623   
    5.24500       5.2450       4.4617   
    5.25000       5.2500       4.4610   
    5.25500       5.2550       4.4603   
    5.26000       5.2600       4.4596   
    5.26500       5.2650       4.4589   
    5.27000       5.2700       4.4582   
    5.27500       5.2750       4.4575   
    5.28000       5.2800       4.4567   
    5.28500       5.2850       4.4560   
    5.29000       5.2900       4.4552   
    5.29500       5.2950       4.4544   
    5.30000       5.3000       4.4536   
    5.30500       5.3050       4.4528   
    5.31000       5.3100       4.4520   
    5.31500       5.3150       4.4512   
    5.32000       5.3200       4.4503   
    5.32500       5.3250       4.4495   
    5.33000       5.3300       4.4486   
    5.33500       5.3350       4.4477   
    5.34000       5.3400       4.4468   
    5.34500       5.3450       4.4459   
    5.35000       5.3500       4.4450   
    5.35500       5.3550       4.4440   
    5.36000       5.3600       4.4431   
    5.36500       5.3650       4.4421   
    5.37000       5.3700       4.4411   
    5.37500       5.3750       4.4401   
    5.38000       5.3800       4.4391   
    5.38500       5.3850       4.4380   
    5.39000       5.3900       4.4370   
    5.39500       5.3950       4.4359   
    5.40000       5.4000       4.4348   
    5.40500       5.4050       4.4337   
    5.41000       5.4100       4.4326   
    5.41500       5.4150       4.4315   
    5.42000       5.4200       4.4303   
    5.42500       5.4250       4.4292   
    5.43000       5.4300       4.4280   
    5.43500       5.4350       4.4268   
    5.44000       5.4400       4.4256   
    5.44500       5.4450       4.4243   
    5.45000       5.4500       4.4231   
    5.45500       5.4550       4.4218   
    5.46000       5.4600       4.4205   
    5.46500       5.4650       4.4192   
    5.47000       5.4700       4.4179   
    5.47500       5.4750       4.4165   
    5.48000       5.4800       4.4151   
    5.48500       5.4850       4.4138   
    5.49000       5.4900       4.4123   
    5.49500       5.4950       4.4109   
    5.50000       5.5000       4.4095   
    5.50500       5.5050       4.4080   
    5.51000       5.5100       4.4065   
    5.51500       5.5150       4.4050   
    5.52000       5.5200       4.4035   
    5.52500       5.5250       4.4019   
    5.53000       5.5300       4.4003   
    5.53500       5.5350       4.3987   
    5.54000       5.5400       4.3971   
    5.54500       5.5450       4.3955   
    5.55000       5.5500       4.3938   
    5.55500       5.5550       4.3921   
[...]
   57.78500      57.7850    -186.3346   
   57.79000      57.7900    -186.3647   
   57.79500      57.7950    -186.3948   
   57.80000      57.8000    -186.4249   
   57.80500      57.8050    -186.4550   
   57.81000      57.8100    -186.4851   
   57.81500      57.8150    -186.5152   
   57.82000      57.8200    -186.5453   
   57.82500      57.8250    -186.5754   
   57.83000      57.8300    -186.6056   
   57.83500      57.8350    -186.6357   
   57.84000      57.8400    -186.6658   
   57.84500      57.8450    -186.6959   
   57.85000      57.8500    -186.7260   
   57.85500      57.8550    -186.7561   
   57.86000      57.8600    -186.7862   
   57.86500      57.8650    -186.8163   
   57.87000      57.8700    -186.8465   
   57.87500      57.8750    -186.8766   
   57.88000      57.8800    -186.9067   
   57.88500      57.8850    -186.9368   
   57.89000      57.8900    -186.9669   
   57.89500      57.8950    -186.9970   
   57.90000      57.9000    -187.0271   
   57.90500      57.9050    -187.0573   
   57.91000      57.9100    -187.0874   
   57.91500      57.9150    -187.1175   
   57.92000      57.9200    -187.1476   
   57.92500      57.9250    -187.1777   
   57.93000      57.9300    -187.2078   
   57.93500      57.9350    -187.2380   
   57.94000      57.9400    -187.2681   
   57.94500      57.9450    -187.2982   
   57.95000      57.9500    -187.3283   
   57.95500      57.9550    -187.3584   
   57.96000      57.9600    -187.3885   
   57.96500      57.9650    -187.4187   
   57.97000      57.9700    -187.4488   
   57.97500      57.9750    -187.4789   
   57.98000      57.9800    -187.5090   
   57.98500      57.9850    -187.5391   
   57.99000      57.9900    -187.5693   
   57.99500      57.9950    -187.5994   
   58.00000      58.0000    -187.6295   
   58.00500      58.0050    -187.6596   
   58.01000      58.0100    -187.6897   
   58.01500      58.0150    -187.7199   
   58.02000      58.0200    -187.7500   
   58.02500      58.0250    -187.7801   
   58.03000      58.0300    -187.8102   
   58.03500      58.0350    -187.8403   
   58.04000      58.0400    -187.8705   
   58.04500      58.0450    -187.9006   
   58.05000      58.0500    -187.9307   
   58.05500      58.0550    -187.9608   
   58.06000      58.0600    -187.9909   
   58.06500      58.0650    -188.0211   
   58.07000      58.0700    -188.0512   
   58.07500      58.0750    -188.0813   
   58.08000      58.0800    -188.1114   
   58.08500      58.0850    -188.1416   
   58.09000      58.0900    -188.1717   
   58.09500      58.0950    -188.2018   
   58.10000      58.1000    -188.2319   
   58.10500      58.1050    -188.2621   
   58.11000      58.1100    -188.2922   
   58.11500      58.1150    -188.3223   
   58.12000      58.1200    -188.3524   
   58.12500      58.1250    -188.3826   
   58.13000      58.1300    -188.4127   
   58.13500      58.1350    -188.4428   
   58.14000      58.1400    -188.4729   
   58.14500      58.1450    -188.5031   
   58.15000      58.1500    -188.5332   
   58.15500      58.1550    -188.5633   
   58.16000      58.1600    -188.5934   
   58.16500      58.1650    -188.6236   
   58.17000      58.1700    -188.6537   
   58.17500      58.1750    -188.6838   
   58.18000      58.1800    -188.7139   
   58.18500      58.1850    -188.7441   
   58.19000      58.1900    -188.7742   
   58.19500      58.1950    -188.8043   
   58.20000      58.2000    -188.8345   
   58.20500      58.2050    -188.8646   
   58.21000      58.2100    -188.8947   
   58.21500      58.2150    -188.9248   
   58.22000      58.2200    -188.9550   
   58.22500      58.2250    -188.9851   
   58.23000      58.2300    -189.0152   
   58.23500      58.2350    -189.0454   
   58.24000      58.2400    -189.0755   
   58.24500      58.2450    -189.1056   
   58.25000      58.2500    -189.1358   
   58.25500      58.2550    -189.1659   
   58.26000      58.2600    -189.1960   
   58.26500      58.2650    -189.2262   
   58.27000      58.2700    -189.2563   
   58.27500      58.2750    -189.2864   
   58.28000      58.2800    -189.3165   
   58.28500      58.2850    -189.3467   
   58.29000      58.2900    -189.3768   
   58.29500      58.2950    -189.4069   
   58.30000      58.3000    -189.4371   
   58.30500      58.3050    -189.4672   
   58.31000      58.3100    -189.4973   
   58.31500      58.3150    -189.5275   
   58.32000      58.3200    -189.5576   
   58.32500      58.3250    -189.5877   
   58.33000      58.3300    -189.6179   
   58.33500      58.3350    -189.6480   
   58.34000      58.3400    -189.6781   
   58.34500      58.3450    -189.7083   
   58.35000      58.3500    -189.7384   
   58.35500      58.3550    -189.7686   
   58.36000      58.3600    -189.7987   
   58.36500      58.3650    -189.8288   
   58.37000      58.3700    -189.8590   
   58.37500      58.3750    -189.8891   
   58.38000      58.3800    -189.9192   
   58.38500      58.3850    -189.9494   
   58.39000      58.3900    -189.9795   
   58.39500      58.3950    -190.0096   
   58.40000      58.4000    -190.0398   
   58.40500      58.4050    -190.0699   
   58.41000      58.4100    -190.1001   
   58.41500      58.4150    -190.1302   
   58.42000      58.4200    -190.1603   
   58.42500      58.4250    -190.1905   
   58.43000      58.4300    -190.2206   
   58.43500      58.4350    -190.2507   
   58.44000      58.4400    -190.2809   
   58.44500      58.4450    -190.3110   
   58.45000      58.4500    -190.3412   
   58.45500      58.4550    -190.3713   
   58.46000      58.4600    -190.4014   
   58.46500      58.4650    -190.4316   
   58.47000      58.4700    -190.4617   
   58.47500      58.4750    -190.4919   
   58.48000      58.4800    -190.5220   
   58.48500      58.4850    -190.5521   
   58.49000      58.4900    -190.5823   
   58.49500      58.4950    -190.6124   
   58.50000      58.5000    -190.6426   
   58.50500      58.5050    -190.6727   
   58.51000      58.5100    -190.7029   
   58.51500      58.5150    -190.7330   
   58.52000      58.5200    -190.7631   
   58.52500      58.5250    -190.7933   
   58.53000      58.5300    -190.8234   
   58.53500      58.5350    -190.8536   
   58.54000      58.5400    -190.8837   
   58.54500      58.5450    -190.9139   
   58.55000      58.5500    -190.9440   
   58.55500      58.5550    -190.9741   
   58.56000      58.5600    -191.0043   
   58.56500      58.5650    -191.0344   
   58.57000      58.5700    -191.0646   
   58.57500      58.5750    -191.0947   
   58.58000      58.5800    -191.1249   
   58.58500      58.5850    -191.1550   
   58.59000      58.5900    -191.1852   
   58.59500      58.5950    -191.2153   
   58.60000      58.6000    -191.2455   
   58.60500      58.6050    -191.2756   
   58.61000      58.6100    -191.3057   
   58.61500      58.6150    -191.3359   
   58.62000      58.6200    -191.3660   
   58.62500      58.6250    -191.3962   
   58.63000      58.6300    -191.4263   
   58.63500      58.6350    -191.4565   
   58.64000      58.6400    -191.4866   
   58.64500      58.6450    -191.5168   
   58.65000      58.6500    -191.5469   
   58.65500      58.6550    -191.5771   
   58.66000      58.6600    -191.6072   
   58.66500      58.6650    -191.6374   
   58.67000      58.6700    -191.6675   
   58.67500      58.6750    -191.6977   
   58.68000      58.6800    -191.7278   
   58.68500      58.6850    -191.7580   
   58.69000      58.6900    -191.7881   
   58.69500      58.6950    -191.8183   
   58.70000      58.7000    -191.8484   
   58.70500      58.7050    -191.8786   
   58.71000      58.7100    -191.9087   
   58.71500      58.7150    -191.9389   
   58.72000      58.7200    -191.9690   
   58.72500      58.7250    -191.9992   
   58.73000      58.7300    -192.0293   
   58.73500      58.7350    -192.0595   
   58.74000      58.7400    -192.0896   
   58.74500      58.7450    -192.1198   
   58.75000      58.7500    -192.1499   
   58.75500      58.7550    -192.1801   
   58.76000      58.7600    -192.2102   
   58.76500      58.7650    -192.2404   
   58.77000      58.7700    -192.2705   
   58.77500      58.7750    -192.3007   
   58.78000      58.7800    -192.3309   
   58.78500      58.7850    -192.3610   
   58.79000      58.7900    -192.3912   
   58.79500      58.7950    -192.4213   
   58.80000      58.8000    -192.4515   
   58.80500      58.8050    -192.4816   
   58.81000      58.8100    -192.5118   
   58.81500      58.8150    -192.5419   
   58.82000      58.8200    -192.5721   
   58.82500      58.8250    -192.6022   
   58.83000      58.8300    -192.6324   
   58.83500      58.8350    -192.6626   
   58.84000      58.8400    -192.6927   
   58.84500      58.8450    -192.7229   
   58.85000      58.8500    -192.7530   
   58.85500      58.8550    -192.7832   
   58.86000      58.8600    -192.8133   
   58.86500      58.8650    -192.8435   
   58.87000      58.8700    -192.8737   
   58.87500      58.8750    -192.9038   
   58.88000      58.8800    -192.9340   
   58.88500      58.8850    -192.9641   
   58.89000      58.8900    -192.9943   
   58.89500      58.8950    -193.0244   
   58.90000      58.9000    -193.0546   
   58.90500      58.9050    -193.0848   
   58.91000      58.9100    -193.1149   
   58.91500      58.9150    -193.1451   
   58.92000      58.9200    -193.1752   
   58.92500      58.9250    -193.2054   
   58.93000      58.9300    -193.2356   
   58.93500      58.9350    -193.2657   
   58.94000      58.9400    -193.2959   
   58.94500      58.9450    -193.3260   
   58.95000      58.9500    -193.3562   
   58.95500      58.9550    -193.3864   
   58.96000      58.9600    -193.4165   
   58.96500      58.9650    -193.4467   
   58.97000      58.9700    -193.4769   
   58.97500      58.9750    -193.5070   
   58.98000      58.9800    -193.5372   
   58.98500      58.9850    -193.5673   
   58.99000      58.9900    -193.5975   
   58.99500      58.9950    -193.6277   
   59.00000      59.0000    -193.6578   
   59.00500      59.0050    -193.6880   
   59.01000      59.0100    -193.7182   
   59.01500      59.0150    -193.7483   
   59.02000      59.0200    -193.7785   
   59.02500      59.0250    -193.8086   
   59.03000      59.0300    -193.8388   
   59.03500      59.0350    -193.8690   
   59.04000      59.0400    -193.8991   
   59.04500      59.0450    -193.9293   
   59.05000      59.0500    -193.9595   
   59.05500      59.0550    -193.9896   
   59.06000      59.0600    -194.0198   
   59.06500      59.0650    -194.0500   
   59.07000      59.0700    -194.0801   
   59.07500      59.0750    -194.1103   
   59.08000      59.0800    -194.1405   
   59.08500      59.0850    -194.1706   
   59.09000      59.0900    -194.2008   
   59.09500      59.0950    -194.2310   
   59.10000      59.1000    -194.2611   
   59.10500      59.1050    -194.2913   
   59.11000      59.1100    -194.3215   
   59.11500      59.1150    -194.3516   
   59.12000      59.1200    -194.3818   
   59.12500      59.1250    -194.4120   
   59.13000      59.1300    -194.4421   
   59.13500      59.1350    -194.4723   
   59.14000      59.1400    -194.5025   
   59.14500      59.1450    -194.5327   
   59.15000      59.1500    -194.5628   
   59.15500      59.1550    -194.5930   
   59.16000      59.1600    -194.6232   
   59.16500      59.1650    -194.6533   
   59.17000      59.1700    -194.6835   
   59.17500      59.1750    -194.7137   
   59.18000      59.1800    -194.7438   
   59.18500      59.1850    -194.7740   
   59.19000      59.1900    -194.8042   
   59.19500      59.1950    -194.8344   
   59.20000      59.2000    -194.8645   
   59.20500      59.2050    -194.8947   
   59.21000      59.2100    -194.9249   
   59.21500      59.2150    -194.9550   
   59.22000      59.2200    -194.9852   
   59.22500      59.2250    -195.0154   
   59.23000      59.2300    -195.0456   
   59.23500      59.2350    -195.0757   
   59.24000      59.2400    -195.1059   
   59.24500      59.2450    -195.1361   
   59.25000      59.2500    -195.1663   
   59.25500      59.2550    -195.1964   
   59.26000      59.2600    -195.2266   
   59.26500      59.2650    -195.2568   
   59.27000      59.2700    -195.2870   
   59.27500      59.2750    -195.3171   
   59.28000      59.2800    -195.3473   
   59.28500      59.2850    -195.3775   
   59.29000      59.2900    -195.4077   
   59.29500      59.2950    -195.4378   
   59.30000      59.3000    -195.4680   
   59.30500      59.3050    -195.4982   
   59.31000      59.3100    -195.5284   
   59.31500      59.3150    -195.5585   
   59.32000      59.3200    -195.5887   
   59.32500      59.3250    -195.6189   
   59.33000      59.3300    -195.6491   
   59.33500      59.3350    -195.6792   
   59.34000      59.3400    -195.7094   
   59.34500      59.3450    -195.7396   
   59.35000      59.3500    -195.7698   
   59.35500      59.3550    -195.8000   
   59.36000      59.3600    -195.8301   
   59.36500      59.3650    -195.8603   
   59.37000      59.3700    -195.8905   
   59.37500      59.3750    -195.9207   
   59.38000      59.3800    -195.9508   
   59.38500      59.3850    -195.9810   
   59.39000      59.3900    -196.0112   
   59.39500      59.3950    -196.0414   
   59.40000      59.4000    -196.0716   
   59.40500      59.4050    -196.1017   
   59.41000      59.4100    -196.1319   
   59.41500      59.4150    -196.1621   
   59.42000      59.4200    -196.1923   
   59.42500      59.4250    -196.2225   
   59.43000      59.4300    -196.2526   
   59.43500      59.4350    -196.2828   
   59.44000      59.4400    -196.3130   
   59.44500      59.4450    -196.3432   
   59.45000      59.4500    -196.3734   
   59.45500      59.4550    -196.4036   
   59.46000      59.4600    -196.4337   
   59.46500      59.4650    -196.4639   
   59.47000      59.4700    -196.4941   
   59.47500      59.4750    -196.5243   
   59.48000      59.4800    -196.5545   
   59.48500      59.4850    -196.5847   
   59.49000      59.4900    -196.6148   
   59.49500      59.4950    -196.6450   
   59.50000      59.5000    -196.6752   
   59.50500      59.5050    -196.7054   
   59.51000      59.5100    -196.7356   
   59.51500      59.5150    -196.7658   
   59.52000      59.5200    -196.7959   
   59.52500      59.5250    -196.8261   
   59.53000      59.5300    -196.8563   
   59.53500      59.5350    -196.8865   
   59.54000      59.5400    -196.9167   
   59.54500      59.5450    -196.9469   
   59.55000      59.5500    -196.9771   
   59.55500      59.5550    -197.0072   
   59.56000      59.5600    -197.0374   
   59.56500      59.5650    -197.0676   
   59.57000      59.5700    -197.0978   
   59.57500      59.5750    -197.1280   
   59.58000      59.5800    -197.1582   
   59.58500      59.5850    -197.1884   
   59.59000      59.5900    -197.2186   
   59.59500      59.5950    -197.2487   
   59.60000      59.6000    -197.2789   
   59.60500      59.6050    -197.3091   
   59.61000      59.6100    -197.3393   
   59.61500      59.6150    -197.3695   
   59.62000      59.6200    -197.3997   
   59.62500      59.6250    -197.4299   
   59.63000      59.6300    -197.4601   
   59.63500      59.6350    -197.4903   
   59.64000      59.6400    -197.5204   
   59.64500      59.6450    -197.5506   
   59.65000      59.6500    -197.5808   
   59.65500      59.6550    -197.6110   
   59.66000      59.6600    -197.6412   
   59.66500      59.6650    -197.6714   
   59.67000      59.6700    -197.7016   
   59.67500      59.6750    -197.7318   
   59.68000      59.6800    -197.7620   
   59.68500      59.6850    -197.7922   
   59.69000      59.6900    -197.8224   
   59.69500      59.6950    -197.8525   
   59.70000      59.7000    -197.8827   
   59.70500      59.7050    -197.9129   
   59.71000      59.7100    -197.9431   
   59.71500      59.7150    -197.9733   
   59.72000      59.7200    -198.0035   
   59.72500      59.7250    -198.0337   
   59.73000      59.7300    -198.0639   
   59.73500      59.7350    -198.0941   
   59.74000      59.7400    -198.1243   
   59.74500      59.7450    -198.1545   
   59.75000      59.7500    -198.1847   
   59.75500      59.7550    -198.2149   
   59.76000      59.7600    -198.2451   
   59.76500      59.7650    -198.2753   
   59.77000      59.7700    -198.3055   
   59.77500      59.7750    -198.3357   
   59.78000      59.7800    -198.3658   
   59.78500      59.7850    -198.3960   
   59.79000      59.7900    -198.4262   
   59.79500      59.7950    -198.4564   
   59.80000      59.8000    -198.4866   
   59.80500      59.8050    -198.5168   
   59.81000      59.8100    -198.5470   
   59.81500      59.8150    -198.5772   
   59.82000      59.8200    -198.6074   
   59.82500      59.8250    -198.6376   
   59.83000      59.8300    -198.6678   
   59.83500      59.8350    -198.6980   
   59.84000      59.8400    -198.7282   
   59.84500      59.8450    -198.7584   
   59.85000      59.8500    -198.7886   
   59.85500      59.8550    -198.8188   
   59.86000      59.8600    -198.8490   
   59.86500      59.8650    -198.8792   
   59.87000      59.8700    -198.9094   
   59.87500      59.8750    -198.9396   
   59.88000      59.8800    -198.9698   
   59.88500      59.8850    -199.0000   
   59.89000      59.8900    -199.0302   
   59.89500      59.8950    -199.0604   
   59.90000      59.9000    -199.0906   
   59.90500      59.9050    -199.1208   
   59.91000      59.9100    -199.1510   
   59.91500      59.9150    -199.1812   
   59.92000      59.9200    -199.2114   
   59.92500      59.9250    -199.2416   
   59.93000      59.9300    -199.2718   
   59.93500      59.9350    -199.3020   
   59.94000      59.9400    -199.3322   
   59.94500      59.9450    -199.3624   
   59.95000      59.9500    -199.3926   
   59.95500      59.9550    -199.4228   
   59.96000      59.9600    -199.4530   
   59.96500      59.9650    -199.4832   
   59.97000      59.9700    -199.5134   
   59.97500      59.9750    -199.5436   
   59.98000      59.9800    -199.5738   
   59.98500      59.9850    -199.6040   
   59.99000      59.9900    -199.6342   
   59.99500      59.9950    -199.6644   
   60.00000      60.0000    -199.6947   
y

          ***** job concluded
1****** HSPICE -- C-2009.03-SP1 32-BIT (May 25 2009) winnt ******               
 ******  
 ** 40 cascaded, 2 paralleled cells

  ******  job statistics summary tnom=  25.000 temp=  25.000 *****

  ******  HSPICE Threads Information  ******
  Command Line Threads Count                  :     1
  Available CPU Count                         :     8
  Actual Model Evaluation(Load) Threads Count :     1
  Actual Solver Threads Count                 :     1


  ******  Circuit Statistics  ******
  # nodes       =      42 # elements   =      73
  # resistors   =      42 # capacitors =       0 # inductors   =       0
  # mutual_inds =       0 # vccs       =       0 # vcvs        =       0
  # cccs        =       0 # ccvs       =       0 # volt_srcs   =       1
  # curr_srcs   =      12 # diodes     =      18 # bjts        =       0
  # jfets       =       0 # mosfets    =       0 # U elements  =       0
  # T elements  =       0 # W elements =       0 # B elements  =       0
  # S elements  =       0 # P elements =       0 # va device   =       0


  ******  Runtime Statistics (seconds)  ******

  analysis           time    # points   tot. iter  conv.iter
  op point           0.00           1           0
  dc sweep           1.25       12001       24053
  readin             0.11
  errchk             0.02
  setup              0.05
  output             0.03


           total memory used          368  kbytes
           total cpu time            1.50 seconds
           total elapsed time        1.56 seconds
           job started at     15:26:20 06/15/2015
           job ended   at     15:26:21 06/15/2015


 Init: hspice initialization file: C:\synopsys\Hspice_C-2009.03-SP1\hspice.ini
  lic: Release hspice token(s) 
