 ****** HSPICE -- C-2009.03-SP1 32-BIT (May 25 2009) winnt ******               
  Copyright (C) 2009 Synopsys, Inc. All Rights Reserved.                        
  Unpublished-rights reserved under US copyright laws.
  This program is protected by law and is subject to the 
  terms and conditions of the license agreement from Synopsys.
  Use of this program is your acceptance to be bound by the 
  license agreement. HSPICE is the trademark of Synopsys, Inc.
  Input File: C:\Users\Administrator\Desktop\MultiLevel\cw2Model.sp             
  lic:  
  lic: FLEXlm: v8.5b 
  lic: USER:   Administrator        HOSTNAME: WIN-HBGPFB5Q4D3 
  lic: HOSTID: "002268384615 005056c00001 005056c00008" PID:      4576 
  lic: Using FLEXlm license file: 
  lic: C:\synopsys\hspice_2009-03.lic 
  lic: Checkout 1 hspice 
  lic: License/Maintenance for hspice will expire on 31-dec-2020/2007.9 
  lic: NODE LOCKED license on hostid "002268384615 005056c00001 005056c00008" 
  lic:   
 Init: read install configuration file: C:\synopsys\Hspice_C-2009.03-SP1\meta.cfg
 Init: hspice initialization file: C:\synopsys\Hspice_C-2009.03-SP1\hspice.ini




1****** HSPICE -- C-2009.03-SP1 32-BIT (May 25 2009) winnt ******               
 ******  
 ** 40 cascaded, 2 paralleled cells

  ******  diode model parameters tnom=  25.000 temp=  25.000 *****
 ********************************************************
 *** common model parameters model name:   0:diode111****
 ********************************************************

     names  values   units     names  values   units     names  values   units
     -----  ------   -----     -----  ------   -----     -----  ------   -----

   1*** dc breakdown parameters ***
       vb=   0.    volts        ibv=   1.00m amps   

   2*** parasitic resistance parameters ***
       rs=   0.    ohms   

   3*** capacitance parameters ***
       fc= 500.00m              fcs= 500.00m                m= 500.00m        
     mjsw= 330.00m               pb= 800.00m volts        php= 800.00m volts  
       tt=   0.    secs         cjo=   0.    f/area       cjp=   0.    f/pj   

   4*** temperature effect parameters ***
     tlev=   0.               tlevc=   0.                 tcv=   0.    v/deg k
      trs=   0.    /deg         cta=   0.    /deg         ctp=   0.    /deg   
      xti=   3.00            xtitun=   3.00               keg=   1.00         
       eg=   1.11  ev          gap1= 702.00u  ev/deg     gap2=   1.11k  deg   
     ttt1=   0.    /deg        ttt2=   0.    /deg2        tm1=   0.    /deg   
      tm2=   0.    /deg2        tpb=   0.    v/deg k     tphp=   0.    v/deg k
     tref=  25.00   deg c 

   5*** noise parameters ***
       kf=   0.                  af=   1.00         

   ***  level   1  model parameters  ***

    level=   1.00                is=   1.00u amps         jsw=   0.    amps   
        n=   6.00               nbv=   6.00                ik=   0.    amp    
     area=   1.00                pj=   0.                 ikr=   0.    amp    
    expli=   0.    amps      explir=   0.    amps        jtun=   0.    amps   
   jtunsw=   0.    amps        ntun=  30.00         
  
 ********************************************************
 *** common model parameters model name:   0:diode11_****
 ********************************************************

     names  values   units     names  values   units     names  values   units
     -----  ------   -----     -----  ------   -----     -----  ------   -----

   1*** dc breakdown parameters ***
       vb=   0.    volts        ibv=   1.00m amps   

   2*** parasitic resistance parameters ***
       rs=   0.    ohms   

   3*** capacitance parameters ***
       fc= 500.00m              fcs= 500.00m                m= 500.00m        
     mjsw= 330.00m               pb= 800.00m volts        php= 800.00m volts  
       tt=   0.    secs         cjo=   0.    f/area       cjp=   0.    f/pj   

   4*** temperature effect parameters ***
     tlev=   0.               tlevc=   0.                 tcv=   0.    v/deg k
      trs=   0.    /deg         cta=   0.    /deg         ctp=   0.    /deg   
      xti=   3.00            xtitun=   3.00               keg=   1.00         
       eg=   1.11  ev          gap1= 702.00u  ev/deg     gap2=   1.11k  deg   
     ttt1=   0.    /deg        ttt2=   0.    /deg2        tm1=   0.    /deg   
      tm2=   0.    /deg2        tpb=   0.    v/deg k     tphp=   0.    v/deg k
     tref=  25.00   deg c 

   5*** noise parameters ***
       kf=   0.                  af=   1.00         

   ***  level   1  model parameters  ***

    level=   1.00                is=   1.00u amps         jsw=   0.    amps   
        n=  13.50               nbv=  13.50                ik=   0.    amp    
     area=   1.00                pj=   0.                 ikr=   0.    amp    
    expli=   0.    amps      explir=   0.    amps        jtun=   0.    amps   
   jtunsw=   0.    amps        ntun=  30.00         
  
 ********************************************************
 *** common model parameters model name:   0:diode_bp****
 ********************************************************

     names  values   units     names  values   units     names  values   units
     -----  ------   -----     -----  ------   -----     -----  ------   -----

   1*** dc breakdown parameters ***
       vb=   0.    volts        ibv=   1.00m amps   

   2*** parasitic resistance parameters ***
       rs=   0.    ohms   

   3*** capacitance parameters ***
       fc= 500.00m              fcs= 500.00m                m= 500.00m        
     mjsw= 330.00m               pb= 800.00m volts        php= 800.00m volts  
       tt=   0.    secs         cjo=   0.    f/area       cjp=   0.    f/pj   

   4*** temperature effect parameters ***
     tlev=   0.               tlevc=   0.                 tcv=   0.    v/deg k
      trs=   0.    /deg         cta=   0.    /deg         ctp=   0.    /deg   
      xti=   3.00            xtitun=   3.00               keg=   1.00         
       eg=   1.11  ev          gap1= 702.00u  ev/deg     gap2=   1.11k  deg   
     ttt1=   0.    /deg        ttt2=   0.    /deg2        tm1=   0.    /deg   
      tm2=   0.    /deg2        tpb=   0.    v/deg k     tphp=   0.    v/deg k
     tref=  25.00   deg c 

   5*** noise parameters ***
       kf=   0.                  af=   1.00         

   ***  level   1  model parameters  ***

    level=   1.00                is=  10.00u amps         jsw=   0.    amps   
        n=   1.00               nbv=   1.00                ik=   0.    amp    
     area=   1.00                pj=   0.                 ikr=   0.    amp    
    expli=   0.    amps      explir=   0.    amps        jtun=   0.    amps   
   jtunsw=   0.    amps        ntun=  30.00         
  
 ********************************************************
 *** common model parameters model name:   0:diode112****
 ********************************************************

     names  values   units     names  values   units     names  values   units
     -----  ------   -----     -----  ------   -----     -----  ------   -----

   1*** dc breakdown parameters ***
       vb=   0.    volts        ibv=   1.00m amps   

   2*** parasitic resistance parameters ***
       rs=   0.    ohms   

   3*** capacitance parameters ***
       fc= 500.00m              fcs= 500.00m                m= 500.00m        
     mjsw= 330.00m               pb= 800.00m volts        php= 800.00m volts  
       tt=   0.    secs         cjo=   0.    f/area       cjp=   0.    f/pj   

   4*** temperature effect parameters ***
     tlev=   0.               tlevc=   0.                 tcv=   0.    v/deg k
      trs=   0.    /deg         cta=   0.    /deg         ctp=   0.    /deg   
      xti=   3.00            xtitun=   3.00               keg=   1.00         
       eg=   1.11  ev          gap1= 702.00u  ev/deg     gap2=   1.11k  deg   
     ttt1=   0.    /deg        ttt2=   0.    /deg2        tm1=   0.    /deg   
      tm2=   0.    /deg2        tpb=   0.    v/deg k     tphp=   0.    v/deg k
     tref=  25.00   deg c 

   5*** noise parameters ***
       kf=   0.                  af=   1.00         

   ***  level   1  model parameters  ***

    level=   1.00                is=   1.00u amps         jsw=   0.    amps   
        n=   4.50               nbv=   4.50                ik=   0.    amp    
     area=   1.00                pj=   0.                 ikr=   0.    amp    
    expli=   0.    amps      explir=   0.    amps        jtun=   0.    amps   
   jtunsw=   0.    amps        ntun=  30.00         
  
 ********************************************************
 *** common model parameters model name:   0:diode21_****
 ********************************************************

     names  values   units     names  values   units     names  values   units
     -----  ------   -----     -----  ------   -----     -----  ------   -----

   1*** dc breakdown parameters ***
       vb=   0.    volts        ibv=   1.00m amps   

   2*** parasitic resistance parameters ***
       rs=   0.    ohms   

   3*** capacitance parameters ***
       fc= 500.00m              fcs= 500.00m                m= 500.00m        
     mjsw= 330.00m               pb= 800.00m volts        php= 800.00m volts  
       tt=   0.    secs         cjo=   0.    f/area       cjp=   0.    f/pj   

   4*** temperature effect parameters ***
     tlev=   0.               tlevc=   0.                 tcv=   0.    v/deg k
      trs=   0.    /deg         cta=   0.    /deg         ctp=   0.    /deg   
      xti=   3.00            xtitun=   3.00               keg=   1.00         
       eg=   1.11  ev          gap1= 702.00u  ev/deg     gap2=   1.11k  deg   
     ttt1=   0.    /deg        ttt2=   0.    /deg2        tm1=   0.    /deg   
      tm2=   0.    /deg2        tpb=   0.    v/deg k     tphp=   0.    v/deg k
     tref=  25.00   deg c 

   5*** noise parameters ***
       kf=   0.                  af=   1.00         

   ***  level   1  model parameters  ***

    level=   1.00                is=   1.00u amps         jsw=   0.    amps   
        n=  15.00               nbv=  15.00                ik=   0.    amp    
     area=   1.00                pj=   0.                 ikr=   0.    amp    
    expli=   0.    amps      explir=   0.    amps        jtun=   0.    amps   
   jtunsw=   0.    amps        ntun=  30.00         
  
 ********************************************************
 *** common model parameters model name:   0:diode_bp****
 ********************************************************

     names  values   units     names  values   units     names  values   units
     -----  ------   -----     -----  ------   -----     -----  ------   -----

   1*** dc breakdown parameters ***
       vb=   0.    volts        ibv=   1.00m amps   

   2*** parasitic resistance parameters ***
       rs=   0.    ohms   

   3*** capacitance parameters ***
       fc= 500.00m              fcs= 500.00m                m= 500.00m        
     mjsw= 330.00m               pb= 800.00m volts        php= 800.00m volts  
       tt=   0.    secs         cjo=   0.    f/area       cjp=   0.    f/pj   

   4*** temperature effect parameters ***
     tlev=   0.               tlevc=   0.                 tcv=   0.    v/deg k
      trs=   0.    /deg         cta=   0.    /deg         ctp=   0.    /deg   
      xti=   3.00            xtitun=   3.00               keg=   1.00         
       eg=   1.11  ev          gap1= 702.00u  ev/deg     gap2=   1.11k  deg   
     ttt1=   0.    /deg        ttt2=   0.    /deg2        tm1=   0.    /deg   
      tm2=   0.    /deg2        tpb=   0.    v/deg k     tphp=   0.    v/deg k
     tref=  25.00   deg c 

   5*** noise parameters ***
       kf=   0.                  af=   1.00         

   ***  level   1  model parameters  ***

    level=   1.00                is=  10.00u amps         jsw=   0.    amps   
        n=   1.00               nbv=   1.00                ik=   0.    amp    
     area=   1.00                pj=   0.                 ikr=   0.    amp    
    expli=   0.    amps      explir=   0.    amps        jtun=   0.    amps   
   jtunsw=   0.    amps        ntun=  30.00         
  
 ********************************************************
 *** common model parameters model name:   0:diode31_****
 ********************************************************

     names  values   units     names  values   units     names  values   units
     -----  ------   -----     -----  ------   -----     -----  ------   -----

   1*** dc breakdown parameters ***
       vb=   0.    volts        ibv=   1.00m amps   

   2*** parasitic resistance parameters ***
       rs=   0.    ohms   

   3*** capacitance parameters ***
       fc= 500.00m              fcs= 500.00m                m= 500.00m        
     mjsw= 330.00m               pb= 800.00m volts        php= 800.00m volts  
       tt=   0.    secs         cjo=   0.    f/area       cjp=   0.    f/pj   

   4*** temperature effect parameters ***
     tlev=   0.               tlevc=   0.                 tcv=   0.    v/deg k
      trs=   0.    /deg         cta=   0.    /deg         ctp=   0.    /deg   
      xti=   3.00            xtitun=   3.00               keg=   1.00         
       eg=   1.11  ev          gap1= 702.00u  ev/deg     gap2=   1.11k  deg   
     ttt1=   0.    /deg        ttt2=   0.    /deg2        tm1=   0.    /deg   
      tm2=   0.    /deg2        tpb=   0.    v/deg k     tphp=   0.    v/deg k
     tref=  25.00   deg c 

   5*** noise parameters ***
       kf=   0.                  af=   1.00         

   ***  level   1  model parameters  ***

    level=   1.00                is=   1.00u amps         jsw=   0.    amps   
        n=  10.50               nbv=  10.50                ik=   0.    amp    
     area=   1.00                pj=   0.                 ikr=   0.    amp    
    expli=   0.    amps      explir=   0.    amps        jtun=   0.    amps   
   jtunsw=   0.    amps        ntun=  30.00         
  
 ********************************************************
 *** common model parameters model name:   0:diode31_****
 ********************************************************

     names  values   units     names  values   units     names  values   units
     -----  ------   -----     -----  ------   -----     -----  ------   -----

   1*** dc breakdown parameters ***
       vb=   0.    volts        ibv=   1.00m amps   

   2*** parasitic resistance parameters ***
       rs=   0.    ohms   

   3*** capacitance parameters ***
       fc= 500.00m              fcs= 500.00m                m= 500.00m        
     mjsw= 330.00m               pb= 800.00m volts        php= 800.00m volts  
       tt=   0.    secs         cjo=   0.    f/area       cjp=   0.    f/pj   

   4*** temperature effect parameters ***
     tlev=   0.               tlevc=   0.                 tcv=   0.    v/deg k
      trs=   0.    /deg         cta=   0.    /deg         ctp=   0.    /deg   
      xti=   3.00            xtitun=   3.00               keg=   1.00         
       eg=   1.11  ev          gap1= 702.00u  ev/deg     gap2=   1.11k  deg   
     ttt1=   0.    /deg        ttt2=   0.    /deg2        tm1=   0.    /deg   
      tm2=   0.    /deg2        tpb=   0.    v/deg k     tphp=   0.    v/deg k
     tref=  25.00   deg c 

   5*** noise parameters ***
       kf=   0.                  af=   1.00         

   ***  level   1  model parameters  ***

    level=   1.00                is=   1.00u amps         jsw=   0.    amps   
        n=  10.50               nbv=  10.50                ik=   0.    amp    
     area=   1.00                pj=   0.                 ikr=   0.    amp    
    expli=   0.    amps      explir=   0.    amps        jtun=   0.    amps   
   jtunsw=   0.    amps        ntun=  30.00         
  
 ********************************************************
 *** common model parameters model name:   0:diode_bp****
 ********************************************************

     names  values   units     names  values   units     names  values   units
     -----  ------   -----     -----  ------   -----     -----  ------   -----

   1*** dc breakdown parameters ***
       vb=   0.    volts        ibv=   1.00m amps   

   2*** parasitic resistance parameters ***
       rs=   0.    ohms   

   3*** capacitance parameters ***
       fc= 500.00m              fcs= 500.00m                m= 500.00m        
     mjsw= 330.00m               pb= 800.00m volts        php= 800.00m volts  
       tt=   0.    secs         cjo=   0.    f/area       cjp=   0.    f/pj   

   4*** temperature effect parameters ***
     tlev=   0.               tlevc=   0.                 tcv=   0.    v/deg k
      trs=   0.    /deg         cta=   0.    /deg         ctp=   0.    /deg   
      xti=   3.00            xtitun=   3.00               keg=   1.00         
       eg=   1.11  ev          gap1= 702.00u  ev/deg     gap2=   1.11k  deg   
     ttt1=   0.    /deg        ttt2=   0.    /deg2        tm1=   0.    /deg   
      tm2=   0.    /deg2        tpb=   0.    v/deg k     tphp=   0.    v/deg k
     tref=  25.00   deg c 

   5*** noise parameters ***
       kf=   0.                  af=   1.00         

   ***  level   1  model parameters  ***

    level=   1.00                is=  10.00u amps         jsw=   0.    amps   
        n=   1.00               nbv=   1.00                ik=   0.    amp    
     area=   1.00                pj=   0.                 ikr=   0.    amp    
    expli=   0.    amps      explir=   0.    amps        jtun=   0.    amps   
   jtunsw=   0.    amps        ntun=  30.00         
  
 ********************************************************
 *** common model parameters model name:   0:diode112****
 ********************************************************

     names  values   units     names  values   units     names  values   units
     -----  ------   -----     -----  ------   -----     -----  ------   -----

   1*** dc breakdown parameters ***
       vb=   0.    volts        ibv=   1.00m amps   

   2*** parasitic resistance parameters ***
       rs=   0.    ohms   

   3*** capacitance parameters ***
       fc= 500.00m              fcs= 500.00m                m= 500.00m        
     mjsw= 330.00m               pb= 800.00m volts        php= 800.00m volts  
       tt=   0.    secs         cjo=   0.    f/area       cjp=   0.    f/pj   

   4*** temperature effect parameters ***
     tlev=   0.               tlevc=   0.                 tcv=   0.    v/deg k
      trs=   0.    /deg         cta=   0.    /deg         ctp=   0.    /deg   
      xti=   3.00            xtitun=   3.00               keg=   1.00         
       eg=   1.11  ev          gap1= 702.00u  ev/deg     gap2=   1.11k  deg   
     ttt1=   0.    /deg        ttt2=   0.    /deg2        tm1=   0.    /deg   
      tm2=   0.    /deg2        tpb=   0.    v/deg k     tphp=   0.    v/deg k
     tref=  25.00   deg c 

   5*** noise parameters ***
       kf=   0.                  af=   1.00         

   ***  level   1  model parameters  ***

    level=   1.00                is=   1.00u amps         jsw=   0.    amps   
        n=   6.00               nbv=   6.00                ik=   0.    amp    
     area=   1.00                pj=   0.                 ikr=   0.    amp    
    expli=   0.    amps      explir=   0.    amps        jtun=   0.    amps   
   jtunsw=   0.    amps        ntun=  30.00         
  
 ********************************************************
 *** common model parameters model name:   0:diode12_****
 ********************************************************

     names  values   units     names  values   units     names  values   units
     -----  ------   -----     -----  ------   -----     -----  ------   -----

   1*** dc breakdown parameters ***
       vb=   0.    volts        ibv=   1.00m amps   

   2*** parasitic resistance parameters ***
       rs=   0.    ohms   

   3*** capacitance parameters ***
       fc= 500.00m              fcs= 500.00m                m= 500.00m        
     mjsw= 330.00m               pb= 800.00m volts        php= 800.00m volts  
       tt=   0.    secs         cjo=   0.    f/area       cjp=   0.    f/pj   

   4*** temperature effect parameters ***
     tlev=   0.               tlevc=   0.                 tcv=   0.    v/deg k
      trs=   0.    /deg         cta=   0.    /deg         ctp=   0.    /deg   
      xti=   3.00            xtitun=   3.00               keg=   1.00         
       eg=   1.11  ev          gap1= 702.00u  ev/deg     gap2=   1.11k  deg   
     ttt1=   0.    /deg        ttt2=   0.    /deg2        tm1=   0.    /deg   
      tm2=   0.    /deg2        tpb=   0.    v/deg k     tphp=   0.    v/deg k
     tref=  25.00   deg c 

   5*** noise parameters ***
       kf=   0.                  af=   1.00         

   ***  level   1  model parameters  ***

    level=   1.00                is=   1.00u amps         jsw=   0.    amps   
        n=  13.50               nbv=  13.50                ik=   0.    amp    
     area=   1.00                pj=   0.                 ikr=   0.    amp    
    expli=   0.    amps      explir=   0.    amps        jtun=   0.    amps   
   jtunsw=   0.    amps        ntun=  30.00         
  
 ********************************************************
 *** common model parameters model name:   0:diode_bp****
 ********************************************************

     names  values   units     names  values   units     names  values   units
     -----  ------   -----     -----  ------   -----     -----  ------   -----

   1*** dc breakdown parameters ***
       vb=   0.    volts        ibv=   1.00m amps   

   2*** parasitic resistance parameters ***
       rs=   0.    ohms   

   3*** capacitance parameters ***
       fc= 500.00m              fcs= 500.00m                m= 500.00m        
     mjsw= 330.00m               pb= 800.00m volts        php= 800.00m volts  
       tt=   0.    secs         cjo=   0.    f/area       cjp=   0.    f/pj   

   4*** temperature effect parameters ***
     tlev=   0.               tlevc=   0.                 tcv=   0.    v/deg k
      trs=   0.    /deg         cta=   0.    /deg         ctp=   0.    /deg   
      xti=   3.00            xtitun=   3.00               keg=   1.00         
       eg=   1.11  ev          gap1= 702.00u  ev/deg     gap2=   1.11k  deg   
     ttt1=   0.    /deg        ttt2=   0.    /deg2        tm1=   0.    /deg   
      tm2=   0.    /deg2        tpb=   0.    v/deg k     tphp=   0.    v/deg k
     tref=  25.00   deg c 

   5*** noise parameters ***
       kf=   0.                  af=   1.00         

   ***  level   1  model parameters  ***

    level=   1.00                is=  10.00u amps         jsw=   0.    amps   
        n=   1.00               nbv=   1.00                ik=   0.    amp    
     area=   1.00                pj=   0.                 ikr=   0.    amp    
    expli=   0.    amps      explir=   0.    amps        jtun=   0.    amps   
   jtunsw=   0.    amps        ntun=  30.00         
  
 ********************************************************
 *** common model parameters model name:   0:diode122****
 ********************************************************

     names  values   units     names  values   units     names  values   units
     -----  ------   -----     -----  ------   -----     -----  ------   -----

   1*** dc breakdown parameters ***
       vb=   0.    volts        ibv=   1.00m amps   

   2*** parasitic resistance parameters ***
       rs=   0.    ohms   

   3*** capacitance parameters ***
       fc= 500.00m              fcs= 500.00m                m= 500.00m        
     mjsw= 330.00m               pb= 800.00m volts        php= 800.00m volts  
       tt=   0.    secs         cjo=   0.    f/area       cjp=   0.    f/pj   

   4*** temperature effect parameters ***
     tlev=   0.               tlevc=   0.                 tcv=   0.    v/deg k
      trs=   0.    /deg         cta=   0.    /deg         ctp=   0.    /deg   
      xti=   3.00            xtitun=   3.00               keg=   1.00         
       eg=   1.11  ev          gap1= 702.00u  ev/deg     gap2=   1.11k  deg   
     ttt1=   0.    /deg        ttt2=   0.    /deg2        tm1=   0.    /deg   
      tm2=   0.    /deg2        tpb=   0.    v/deg k     tphp=   0.    v/deg k
     tref=  25.00   deg c 

   5*** noise parameters ***
       kf=   0.                  af=   1.00         

   ***  level   1  model parameters  ***

    level=   1.00                is=   1.00u amps         jsw=   0.    amps   
        n=   7.50               nbv=   7.50                ik=   0.    amp    
     area=   1.00                pj=   0.                 ikr=   0.    amp    
    expli=   0.    amps      explir=   0.    amps        jtun=   0.    amps   
   jtunsw=   0.    amps        ntun=  30.00         
  
 ********************************************************
 *** common model parameters model name:   0:diode22_****
 ********************************************************

     names  values   units     names  values   units     names  values   units
     -----  ------   -----     -----  ------   -----     -----  ------   -----

   1*** dc breakdown parameters ***
       vb=   0.    volts        ibv=   1.00m amps   

   2*** parasitic resistance parameters ***
       rs=   0.    ohms   

   3*** capacitance parameters ***
       fc= 500.00m              fcs= 500.00m                m= 500.00m        
     mjsw= 330.00m               pb= 800.00m volts        php= 800.00m volts  
       tt=   0.    secs         cjo=   0.    f/area       cjp=   0.    f/pj   

   4*** temperature effect parameters ***
     tlev=   0.               tlevc=   0.                 tcv=   0.    v/deg k
      trs=   0.    /deg         cta=   0.    /deg         ctp=   0.    /deg   
      xti=   3.00            xtitun=   3.00               keg=   1.00         
       eg=   1.11  ev          gap1= 702.00u  ev/deg     gap2=   1.11k  deg   
     ttt1=   0.    /deg        ttt2=   0.    /deg2        tm1=   0.    /deg   
      tm2=   0.    /deg2        tpb=   0.    v/deg k     tphp=   0.    v/deg k
     tref=  25.00   deg c 

   5*** noise parameters ***
       kf=   0.                  af=   1.00         

   ***  level   1  model parameters  ***

    level=   1.00                is=   1.00u amps         jsw=   0.    amps   
        n=  12.00               nbv=  12.00                ik=   0.    amp    
     area=   1.00                pj=   0.                 ikr=   0.    amp    
    expli=   0.    amps      explir=   0.    amps        jtun=   0.    amps   
   jtunsw=   0.    amps        ntun=  30.00         
  
 ********************************************************
 *** common model parameters model name:   0:diode_bp****
 ********************************************************

     names  values   units     names  values   units     names  values   units
     -----  ------   -----     -----  ------   -----     -----  ------   -----

   1*** dc breakdown parameters ***
       vb=   0.    volts        ibv=   1.00m amps   

   2*** parasitic resistance parameters ***
       rs=   0.    ohms   

   3*** capacitance parameters ***
       fc= 500.00m              fcs= 500.00m                m= 500.00m        
     mjsw= 330.00m               pb= 800.00m volts        php= 800.00m volts  
       tt=   0.    secs         cjo=   0.    f/area       cjp=   0.    f/pj   

   4*** temperature effect parameters ***
     tlev=   0.               tlevc=   0.                 tcv=   0.    v/deg k
      trs=   0.    /deg         cta=   0.    /deg         ctp=   0.    /deg   
      xti=   3.00            xtitun=   3.00               keg=   1.00         
       eg=   1.11  ev          gap1= 702.00u  ev/deg     gap2=   1.11k  deg   
     ttt1=   0.    /deg        ttt2=   0.    /deg2        tm1=   0.    /deg   
      tm2=   0.    /deg2        tpb=   0.    v/deg k     tphp=   0.    v/deg k
     tref=  25.00   deg c 

   5*** noise parameters ***
       kf=   0.                  af=   1.00         

   ***  level   1  model parameters  ***

    level=   1.00                is=  10.00u amps         jsw=   0.    amps   
        n=   1.00               nbv=   1.00                ik=   0.    amp    
     area=   1.00                pj=   0.                 ikr=   0.    amp    
    expli=   0.    amps      explir=   0.    amps        jtun=   0.    amps   
   jtunsw=   0.    amps        ntun=  30.00         
  
 ********************************************************
 *** common model parameters model name:   0:diode32_****
 ********************************************************

     names  values   units     names  values   units     names  values   units
     -----  ------   -----     -----  ------   -----     -----  ------   -----

   1*** dc breakdown parameters ***
       vb=   0.    volts        ibv=   1.00m amps   

   2*** parasitic resistance parameters ***
       rs=   0.    ohms   

   3*** capacitance parameters ***
       fc= 500.00m              fcs= 500.00m                m= 500.00m        
     mjsw= 330.00m               pb= 800.00m volts        php= 800.00m volts  
       tt=   0.    secs         cjo=   0.    f/area       cjp=   0.    f/pj   

   4*** temperature effect parameters ***
     tlev=   0.               tlevc=   0.                 tcv=   0.    v/deg k
      trs=   0.    /deg         cta=   0.    /deg         ctp=   0.    /deg   
      xti=   3.00            xtitun=   3.00               keg=   1.00         
       eg=   1.11  ev          gap1= 702.00u  ev/deg     gap2=   1.11k  deg   
     ttt1=   0.    /deg        ttt2=   0.    /deg2        tm1=   0.    /deg   
      tm2=   0.    /deg2        tpb=   0.    v/deg k     tphp=   0.    v/deg k
     tref=  25.00   deg c 

   5*** noise parameters ***
       kf=   0.                  af=   1.00         

   ***  level   1  model parameters  ***

    level=   1.00                is=   1.00u amps         jsw=   0.    amps   
        n=  13.50               nbv=  13.50                ik=   0.    amp    
     area=   1.00                pj=   0.                 ikr=   0.    amp    
    expli=   0.    amps      explir=   0.    amps        jtun=   0.    amps   
   jtunsw=   0.    amps        ntun=  30.00         
  
 ********************************************************
 *** common model parameters model name:   0:diode32_****
 ********************************************************

     names  values   units     names  values   units     names  values   units
     -----  ------   -----     -----  ------   -----     -----  ------   -----

   1*** dc breakdown parameters ***
       vb=   0.    volts        ibv=   1.00m amps   

   2*** parasitic resistance parameters ***
       rs=   0.    ohms   

   3*** capacitance parameters ***
       fc= 500.00m              fcs= 500.00m                m= 500.00m        
     mjsw= 330.00m               pb= 800.00m volts        php= 800.00m volts  
       tt=   0.    secs         cjo=   0.    f/area       cjp=   0.    f/pj   

   4*** temperature effect parameters ***
     tlev=   0.               tlevc=   0.                 tcv=   0.    v/deg k
      trs=   0.    /deg         cta=   0.    /deg         ctp=   0.    /deg   
      xti=   3.00            xtitun=   3.00               keg=   1.00         
       eg=   1.11  ev          gap1= 702.00u  ev/deg     gap2=   1.11k  deg   
     ttt1=   0.    /deg        ttt2=   0.    /deg2        tm1=   0.    /deg   
      tm2=   0.    /deg2        tpb=   0.    v/deg k     tphp=   0.    v/deg k
     tref=  25.00   deg c 

   5*** noise parameters ***
       kf=   0.                  af=   1.00         

   ***  level   1  model parameters  ***

    level=   1.00                is=   1.00u amps         jsw=   0.    amps   
        n=   7.50               nbv=   7.50                ik=   0.    amp    
     area=   1.00                pj=   0.                 ikr=   0.    amp    
    expli=   0.    amps      explir=   0.    amps        jtun=   0.    amps   
   jtunsw=   0.    amps        ntun=  30.00         
  
 ********************************************************
 *** common model parameters model name:   0:diode_bp****
 ********************************************************

     names  values   units     names  values   units     names  values   units
     -----  ------   -----     -----  ------   -----     -----  ------   -----

   1*** dc breakdown parameters ***
       vb=   0.    volts        ibv=   1.00m amps   

   2*** parasitic resistance parameters ***
       rs=   0.    ohms   

   3*** capacitance parameters ***
       fc= 500.00m              fcs= 500.00m                m= 500.00m        
     mjsw= 330.00m               pb= 800.00m volts        php= 800.00m volts  
       tt=   0.    secs         cjo=   0.    f/area       cjp=   0.    f/pj   

   4*** temperature effect parameters ***
     tlev=   0.               tlevc=   0.                 tcv=   0.    v/deg k
      trs=   0.    /deg         cta=   0.    /deg         ctp=   0.    /deg   
      xti=   3.00            xtitun=   3.00               keg=   1.00         
       eg=   1.11  ev          gap1= 702.00u  ev/deg     gap2=   1.11k  deg   
     ttt1=   0.    /deg        ttt2=   0.    /deg2        tm1=   0.    /deg   
      tm2=   0.    /deg2        tpb=   0.    v/deg k     tphp=   0.    v/deg k
     tref=  25.00   deg c 

   5*** noise parameters ***
       kf=   0.                  af=   1.00         

   ***  level   1  model parameters  ***

    level=   1.00                is=  10.00u amps         jsw=   0.    amps   
        n=   1.00               nbv=   1.00                ik=   0.    amp    
     area=   1.00                pj=   0.                 ikr=   0.    amp    
    expli=   0.    amps      explir=   0.    amps        jtun=   0.    amps   
   jtunsw=   0.    amps        ntun=  30.00         
  
  **warning** (C:\Users\Administrator\Desktop\MultiLevel\cw2Model.sp:12) r11_111_2defined in subckt 0                resistance limited to   1.000E-05
 
      
 *****************************************************************
 ******  option summary
 ******
 runlvl  = 3         bypass  = 2         
 ******  
 ** 40 cascaded, 2 paralleled cells

  ******  dc transfer curves tnom=  25.000 temp=  25.000 *****
x

        volt    voltage      current    
                     1           vds    
    0.            0.           5.0005   
    5.00000m      5.0000m      5.0005   
   10.00000m     10.0000m      5.0005   
   15.00000m     15.0000m      5.0005   
   20.00000m     20.0000m      5.0005   
   25.00000m     25.0000m      5.0005   
   30.00000m     30.0000m      5.0005   
   35.00000m     35.0000m      5.0005   
   40.00000m     40.0000m      5.0005   
   45.00000m     45.0000m      5.0005   
   50.00000m     50.0000m      5.0005   
   55.00000m     55.0000m      5.0005   
   60.00000m     60.0000m      5.0005   
   65.00000m     65.0000m      5.0005   
   70.00000m     70.0000m      5.0005   
   75.00000m     75.0000m      5.0005   
   80.00000m     80.0000m      5.0005   
   85.00000m     85.0000m      5.0005   
   90.00000m     90.0000m      5.0005   
   95.00000m     95.0000m      5.0005   
  100.00000m    100.0000m      5.0005   
  105.00000m    105.0000m      5.0005   
  110.00000m    110.0000m      5.0005   
  115.00000m    115.0000m      5.0005   
  120.00000m    120.0000m      5.0005   
  125.00000m    125.0000m      5.0005   
  130.00000m    130.0000m      5.0005   
  135.00000m    135.0000m      5.0005   
  140.00000m    140.0000m      5.0005   
  145.00000m    145.0000m      5.0005   
  150.00000m    150.0000m      5.0005   
  155.00000m    155.0000m      5.0005   
  160.00000m    160.0000m      5.0005   
  165.00000m    165.0000m      5.0005   
  170.00000m    170.0000m      5.0005   
  175.00000m    175.0000m      5.0005   
  180.00000m    180.0000m      5.0005   
  185.00000m    185.0000m      5.0005   
  190.00000m    190.0000m      5.0005   
  195.00000m    195.0000m      5.0005   
  200.00000m    200.0000m      5.0005   
  205.00000m    205.0000m      5.0005   
  210.00000m    210.0000m      5.0004   
  215.00000m    215.0000m      5.0004   
  220.00000m    220.0000m      5.0004   
  225.00000m    225.0000m      5.0004   
  230.00000m    230.0000m      5.0004   
  235.00000m    235.0000m      5.0004   
  240.00000m    240.0000m      5.0004   
  245.00000m    245.0000m      5.0004   
  250.00000m    250.0000m      5.0004   
  255.00000m    255.0000m      5.0004   
  260.00000m    260.0000m      5.0004   
  265.00000m    265.0000m      5.0004   
  270.00000m    270.0000m      5.0004   
  275.00000m    275.0000m      5.0004   
  280.00000m    280.0000m      5.0004   
  285.00000m    285.0000m      5.0004   
  290.00000m    290.0000m      5.0004   
  295.00000m    295.0000m      5.0004   
  300.00000m    300.0000m      5.0004   
  305.00000m    305.0000m      5.0004   
  310.00000m    310.0000m      5.0004   
  315.00000m    315.0000m      5.0004   
  320.00000m    320.0000m      5.0004   
  325.00000m    325.0000m      5.0004   
  330.00000m    330.0000m      5.0004   
  335.00000m    335.0000m      5.0004   
  340.00000m    340.0000m      5.0004   
  345.00000m    345.0000m      5.0004   
  350.00000m    350.0000m      5.0004   
  355.00000m    355.0000m      5.0004   
  360.00000m    360.0000m      5.0004   
  365.00000m    365.0000m      5.0004   
  370.00000m    370.0000m      5.0004   
  375.00000m    375.0000m      5.0004   
  380.00000m    380.0000m      5.0004   
  385.00000m    385.0000m      5.0004   
  390.00000m    390.0000m      5.0004   
  395.00000m    395.0000m      5.0004   
  400.00000m    400.0000m      5.0004   
  405.00000m    405.0000m      5.0004   
  410.00000m    410.0000m      5.0004   
  415.00000m    415.0000m      5.0004   
  420.00000m    420.0000m      5.0004   
  425.00000m    425.0000m      5.0004   
  430.00000m    430.0000m      5.0004   
  435.00000m    435.0000m      5.0004   
  440.00000m    440.0000m      5.0004   
  445.00000m    445.0000m      5.0004   
  450.00000m    450.0000m      5.0004   
  455.00000m    455.0000m      5.0004   
  460.00000m    460.0000m      5.0003   
  465.00000m    465.0000m      5.0003   
  470.00000m    470.0000m      5.0003   
  475.00000m    475.0000m      5.0003   
  480.00000m    480.0000m      5.0003   
  485.00000m    485.0000m      5.0003   
  490.00000m    490.0000m      5.0003   
  495.00000m    495.0000m      5.0003   
  500.00000m    500.0000m      5.0003   
  505.00000m    505.0000m      5.0003   
  510.00000m    510.0000m      5.0003   
  515.00000m    515.0000m      5.0003   
  520.00000m    520.0000m      5.0003   
  525.00000m    525.0000m      5.0003   
  530.00000m    530.0000m      5.0003   
  535.00000m    535.0000m      5.0003   
  540.00000m    540.0000m      5.0003   
  545.00000m    545.0000m      5.0003   
  550.00000m    550.0000m      5.0003   
  555.00000m    555.0000m      5.0003   
  560.00000m    560.0000m      5.0003   
  565.00000m    565.0000m      5.0003   
  570.00000m    570.0000m      5.0003   
  575.00000m    575.0000m      5.0003   
  580.00000m    580.0000m      5.0003   
  585.00000m    585.0000m      5.0003   
  590.00000m    590.0000m      5.0003   
  595.00000m    595.0000m      5.0003   
  600.00000m    600.0000m      5.0003   
  605.00000m    605.0000m      5.0003   
  610.00000m    610.0000m      5.0003   
  615.00000m    615.0000m      5.0003   
  620.00000m    620.0000m      5.0003   
  625.00000m    625.0000m      5.0003   
  630.00000m    630.0000m      5.0003   
  635.00000m    635.0000m      5.0003   
  640.00000m    640.0000m      5.0003   
  645.00000m    645.0000m      5.0003   
  650.00000m    650.0000m      5.0003   
  655.00000m    655.0000m      5.0003   
  660.00000m    660.0000m      5.0003   
  665.00000m    665.0000m      5.0003   
  670.00000m    670.0000m      5.0003   
  675.00000m    675.0000m      5.0003   
  680.00000m    680.0000m      5.0003   
  685.00000m    685.0000m      5.0003   
  690.00000m    690.0000m      5.0003   
  695.00000m    695.0000m      5.0003   
  700.00000m    700.0000m      5.0003   
  705.00000m    705.0000m      5.0003   
  710.00000m    710.0000m      5.0002   
  715.00000m    715.0000m      5.0002   
  720.00000m    720.0000m      5.0002   
  725.00000m    725.0000m      5.0002   
  730.00000m    730.0000m      5.0002   
  735.00000m    735.0000m      5.0002   
  740.00000m    740.0000m      5.0002   
  745.00000m    745.0000m      5.0002   
  750.00000m    750.0000m      5.0002   
  755.00000m    755.0000m      5.0002   
  760.00000m    760.0000m      5.0002   
  765.00000m    765.0000m      5.0002   
  770.00000m    770.0000m      5.0002   
  775.00000m    775.0000m      5.0002   
  780.00000m    780.0000m      5.0002   
  785.00000m    785.0000m      5.0002   
  790.00000m    790.0000m      5.0002   
  795.00000m    795.0000m      5.0002   
  800.00000m    800.0000m      5.0002   
  805.00000m    805.0000m      5.0002   
  810.00000m    810.0000m      5.0002   
  815.00000m    815.0000m      5.0002   
  820.00000m    820.0000m      5.0002   
  825.00000m    825.0000m      5.0002   
  830.00000m    830.0000m      5.0002   
  835.00000m    835.0000m      5.0002   
  840.00000m    840.0000m      5.0002   
  845.00000m    845.0000m      5.0002   
  850.00000m    850.0000m      5.0002   
  855.00000m    855.0000m      5.0002   
  860.00000m    860.0000m      5.0002   
  865.00000m    865.0000m      5.0002   
  870.00000m    870.0000m      5.0002   
  875.00000m    875.0000m      5.0002   
  880.00000m    880.0000m      5.0002   
  885.00000m    885.0000m      5.0002   
  890.00000m    890.0000m      5.0002   
  895.00000m    895.0000m      5.0002   
  900.00000m    900.0000m      5.0002   
  905.00000m    905.0000m      5.0002   
  910.00000m    910.0000m      5.0002   
  915.00000m    915.0000m      5.0002   
  920.00000m    920.0000m      5.0002   
  925.00000m    925.0000m      5.0002   
  930.00000m    930.0000m      5.0002   
  935.00000m    935.0000m      5.0002   
  940.00000m    940.0000m      5.0002   
  945.00000m    945.0000m      5.0002   
  950.00000m    950.0000m      5.0002   
  955.00000m    955.0000m      5.0002   
  960.00000m    960.0000m      5.0001   
  965.00000m    965.0000m      5.0001   
  970.00000m    970.0000m      5.0001   
  975.00000m    975.0000m      5.0001   
  980.00000m    980.0000m      5.0001   
  985.00000m    985.0000m      5.0001   
  990.00000m    990.0000m      5.0001   
  995.00000m    995.0000m      5.0001   
    1.00000       1.0000       5.0001   
    1.00500       1.0050       5.0001   
    1.01000       1.0100       5.0001   
    1.01500       1.0150       5.0001   
    1.02000       1.0200       5.0001   
    1.02500       1.0250       5.0001   
    1.03000       1.0300       5.0001   
    1.03500       1.0350       5.0001   
    1.04000       1.0400       5.0001   
    1.04500       1.0450       5.0001   
    1.05000       1.0500       5.0001   
    1.05500       1.0550       5.0001   
    1.06000       1.0600       5.0001   
    1.06500       1.0650       5.0001   
    1.07000       1.0700       5.0001   
    1.07500       1.0750       5.0001   
    1.08000       1.0800       5.0001   
    1.08500       1.0850       5.0001   
    1.09000       1.0900       5.0001   
    1.09500       1.0950       5.0001   
    1.10000       1.1000       5.0001   
    1.10500       1.1050       5.0001   
    1.11000       1.1100       5.0001   
    1.11500       1.1150       5.0001   
    1.12000       1.1200       5.0001   
    1.12500       1.1250       5.0001   
    1.13000       1.1300       5.0001   
    1.13500       1.1350       5.0001   
    1.14000       1.1400       5.0001   
    1.14500       1.1450       5.0001   
    1.15000       1.1500       5.0001   
    1.15500       1.1550       5.0001   
    1.16000       1.1600       5.0001   
    1.16500       1.1650       5.0001   
    1.17000       1.1700       5.0001   
    1.17500       1.1750       5.0001   
    1.18000       1.1800       5.0001   
    1.18500       1.1850       5.0001   
    1.19000       1.1900       5.0001   
    1.19500       1.1950       5.0001   
    1.20000       1.2000       5.0001   
    1.20500       1.2050       5.0001   
    1.21000       1.2100       5.0000   
    1.21500       1.2150       5.0000   
    1.22000       1.2200       5.0000   
    1.22500       1.2250       5.0000   
    1.23000       1.2300       5.0000   
    1.23500       1.2350       5.0000   
    1.24000       1.2400       5.0000   
    1.24500       1.2450       5.0000   
    1.25000       1.2500       5.0000   
    1.25500       1.2550       5.0000   
    1.26000       1.2600       5.0000   
    1.26500       1.2650       5.0000   
    1.27000       1.2700       5.0000   
    1.27500       1.2750       5.0000   
    1.28000       1.2800       5.0000   
    1.28500       1.2850       5.0000   
    1.29000       1.2900       5.0000   
    1.29500       1.2950       5.0000   
    1.30000       1.3000       5.0000   
    1.30500       1.3050       5.0000   
    1.31000       1.3100       5.0000   
    1.31500       1.3150       5.0000   
    1.32000       1.3200       5.0000   
    1.32500       1.3250       5.0000   
    1.33000       1.3300       5.0000   
    1.33500       1.3350       5.0000   
    1.34000       1.3400       5.0000   
    1.34500       1.3450       5.0000   
    1.35000       1.3500       5.0000   
    1.35500       1.3550       5.0000   
    1.36000       1.3600       5.0000   
    1.36500       1.3650       5.0000   
    1.37000       1.3700       5.0000   
    1.37500       1.3750       5.0000   
    1.38000       1.3800       5.0000   
    1.38500       1.3850       5.0000   
    1.39000       1.3900       5.0000   
    1.39500       1.3950       5.0000   
    1.40000       1.4000       5.0000   
    1.40500       1.4050       5.0000   
    1.41000       1.4100       5.0000   
    1.41500       1.4150       5.0000   
    1.42000       1.4200       5.0000   
    1.42500       1.4250       5.0000   
    1.43000       1.4300       5.0000   
    1.43500       1.4350       5.0000   
    1.44000       1.4400       5.0000   
    1.44500       1.4450       5.0000   
    1.45000       1.4500       5.0000   
    1.45500       1.4550       4.9999   
    1.46000       1.4600       4.9999   
    1.46500       1.4650       4.9999   
    1.47000       1.4700       4.9999   
    1.47500       1.4750       4.9999   
    1.48000       1.4800       4.9999   
    1.48500       1.4850       4.9999   
    1.49000       1.4900       4.9999   
    1.49500       1.4950       4.9999   
    1.50000       1.5000       4.9999   
    1.50500       1.5050       4.9999   
    1.51000       1.5100       4.9999   
    1.51500       1.5150       4.9999   
    1.52000       1.5200       4.9999   
    1.52500       1.5250       4.9999   
    1.53000       1.5300       4.9999   
    1.53500       1.5350       4.9999   
    1.54000       1.5400       4.9999   
    1.54500       1.5450       4.9999   
    1.55000       1.5500       4.9999   
    1.55500       1.5550       4.9999   
    1.56000       1.5600       4.9999   
    1.56500       1.5650       4.9999   
    1.57000       1.5700       4.9999   
    1.57500       1.5750       4.9999   
    1.58000       1.5800       4.9999   
    1.58500       1.5850       4.9999   
    1.59000       1.5900       4.9999   
    1.59500       1.5950       4.9999   
    1.60000       1.6000       4.9999   
    1.60500       1.6050       4.9999   
    1.61000       1.6100       4.9999   
    1.61500       1.6150       4.9999   
    1.62000       1.6200       4.9999   
    1.62500       1.6250       4.9999   
    1.63000       1.6300       4.9999   
    1.63500       1.6350       4.9999   
    1.64000       1.6400       4.9999   
    1.64500       1.6450       4.9999   
    1.65000       1.6500       4.9999   
    1.65500       1.6550       4.9999   
    1.66000       1.6600       4.9999   
    1.66500       1.6650       4.9999   
    1.67000       1.6700       4.9999   
    1.67500       1.6750       4.9999   
    1.68000       1.6800       4.9999   
    1.68500       1.6850       4.9999   
    1.69000       1.6900       4.9999   
    1.69500       1.6950       4.9999   
    1.70000       1.7000       4.9998   
    1.70500       1.7050       4.9998   
    1.71000       1.7100       4.9998   
    1.71500       1.7150       4.9998   
    1.72000       1.7200       4.9998   
    1.72500       1.7250       4.9998   
    1.73000       1.7300       4.9998   
    1.73500       1.7350       4.9998   
    1.74000       1.7400       4.9998   
    1.74500       1.7450       4.9998   
    1.75000       1.7500       4.9998   
    1.75500       1.7550       4.9998   
    1.76000       1.7600       4.9998   
    1.76500       1.7650       4.9998   
    1.77000       1.7700       4.9998   
    1.77500       1.7750       4.9998   
    1.78000       1.7800       4.9998   
    1.78500       1.7850       4.9998   
    1.79000       1.7900       4.9998   
    1.79500       1.7950       4.9998   
    1.80000       1.8000       4.9998   
    1.80500       1.8050       4.9998   
    1.81000       1.8100       4.9998   
    1.81500       1.8150       4.9998   
    1.82000       1.8200       4.9998   
    1.82500       1.8250       4.9998   
    1.83000       1.8300       4.9998   
    1.83500       1.8350       4.9998   
    1.84000       1.8400       4.9998   
    1.84500       1.8450       4.9998   
    1.85000       1.8500       4.9998   
    1.85500       1.8550       4.9998   
    1.86000       1.8600       4.9998   
    1.86500       1.8650       4.9998   
    1.87000       1.8700       4.9998   
    1.87500       1.8750       4.9998   
    1.88000       1.8800       4.9998   
    1.88500       1.8850       4.9998   
    1.89000       1.8900       4.9998   
    1.89500       1.8950       4.9998   
    1.90000       1.9000       4.9998   
    1.90500       1.9050       4.9998   
    1.91000       1.9100       4.9998   
    1.91500       1.9150       4.9998   
    1.92000       1.9200       4.9998   
    1.92500       1.9250       4.9998   
    1.93000       1.9300       4.9998   
    1.93500       1.9350       4.9997   
    1.94000       1.9400       4.9997   
    1.94500       1.9450       4.9997   
    1.95000       1.9500       4.9997   
    1.95500       1.9550       4.9997   
    1.96000       1.9600       4.9997   
    1.96500       1.9650       4.9997   
    1.97000       1.9700       4.9997   
    1.97500       1.9750       4.9997   
    1.98000       1.9800       4.9997   
    1.98500       1.9850       4.9997   
    1.99000       1.9900       4.9997   
    1.99500       1.9950       4.9997   
    2.00000       2.0000       4.9997   
    2.00500       2.0050       4.9997   
    2.01000       2.0100       4.9997   
    2.01500       2.0150       4.9997   
    2.02000       2.0200       4.9997   
    2.02500       2.0250       4.9997   
    2.03000       2.0300       4.9997   
    2.03500       2.0350       4.9997   
    2.04000       2.0400       4.9997   
    2.04500       2.0450       4.9997   
    2.05000       2.0500       4.9997   
    2.05500       2.0550       4.9997   
    2.06000       2.0600       4.9997   
    2.06500       2.0650       4.9997   
    2.07000       2.0700       4.9997   
    2.07500       2.0750       4.9997   
    2.08000       2.0800       4.9997   
    2.08500       2.0850       4.9997   
    2.09000       2.0900       4.9997   
    2.09500       2.0950       4.9997   
    2.10000       2.1000       4.9997   
    2.10500       2.1050       4.9997   
    2.11000       2.1100       4.9997   
    2.11500       2.1150       4.9997   
    2.12000       2.1200       4.9997   
    2.12500       2.1250       4.9997   
    2.13000       2.1300       4.9997   
    2.13500       2.1350       4.9997   
    2.14000       2.1400       4.9997   
    2.14500       2.1450       4.9997   
    2.15000       2.1500       4.9997   
    2.15500       2.1550       4.9997   
    2.16000       2.1600       4.9997   
    2.16500       2.1650       4.9996   
    2.17000       2.1700       4.9996   
    2.17500       2.1750       4.9996   
    2.18000       2.1800       4.9996   
    2.18500       2.1850       4.9996   
    2.19000       2.1900       4.9996   
    2.19500       2.1950       4.9996   
    2.20000       2.2000       4.9996   
    2.20500       2.2050       4.9996   
    2.21000       2.2100       4.9996   
    2.21500       2.2150       4.9996   
    2.22000       2.2200       4.9996   
    2.22500       2.2250       4.9996   
    2.23000       2.2300       4.9996   
    2.23500       2.2350       4.9996   
    2.24000       2.2400       4.9996   
    2.24500       2.2450       4.9996   
    2.25000       2.2500       4.9996   
    2.25500       2.2550       4.9996   
    2.26000       2.2600       4.9996   
    2.26500       2.2650       4.9996   
    2.27000       2.2700       4.9996   
    2.27500       2.2750       4.9996   
    2.28000       2.2800       4.9996   
    2.28500       2.2850       4.9996   
    2.29000       2.2900       4.9996   
    2.29500       2.2950       4.9996   
    2.30000       2.3000       4.9996   
    2.30500       2.3050       4.9996   
    2.31000       2.3100       4.9996   
    2.31500       2.3150       4.9996   
    2.32000       2.3200       4.9996   
    2.32500       2.3250       4.9996   
    2.33000       2.3300       4.9996   
    2.33500       2.3350       4.9996   
    2.34000       2.3400       4.9996   
    2.34500       2.3450       4.9996   
    2.35000       2.3500       4.9996   
    2.35500       2.3550       4.9996   
    2.36000       2.3600       4.9996   
    2.36500       2.3650       4.9996   
    2.37000       2.3700       4.9996   
    2.37500       2.3750       4.9995   
    2.38000       2.3800       4.9995   
    2.38500       2.3850       4.9995   
    2.39000       2.3900       4.9995   
    2.39500       2.3950       4.9995   
    2.40000       2.4000       4.9995   
    2.40500       2.4050       4.9995   
    2.41000       2.4100       4.9995   
    2.41500       2.4150       4.9995   
    2.42000       2.4200       4.9995   
    2.42500       2.4250       4.9995   
    2.43000       2.4300       4.9995   
    2.43500       2.4350       4.9995   
    2.44000       2.4400       4.9995   
    2.44500       2.4450       4.9995   
    2.45000       2.4500       4.9995   
    2.45500       2.4550       4.9995   
    2.46000       2.4600       4.9995   
    2.46500       2.4650       4.9995   
    2.47000       2.4700       4.9995   
    2.47500       2.4750       4.9995   
    2.48000       2.4800       4.9995   
    2.48500       2.4850       4.9995   
    2.49000       2.4900       4.9995   
    2.49500       2.4950       4.9995   
    2.50000       2.5000       4.9995   
    2.50500       2.5050       4.9995   
    2.51000       2.5100       4.9995   
    2.51500       2.5150       4.9995   
    2.52000       2.5200       4.9995   
    2.52500       2.5250       4.9995   
    2.53000       2.5300       4.9995   
    2.53500       2.5350       4.9995   
    2.54000       2.5400       4.9995   
    2.54500       2.5450       4.9995   
    2.55000       2.5500       4.9995   
    2.55500       2.5550       4.9995   
    2.56000       2.5600       4.9994   
    2.56500       2.5650       4.9994   
    2.57000       2.5700       4.9994   
    2.57500       2.5750       4.9994   
    2.58000       2.5800       4.9994   
    2.58500       2.5850       4.9994   
    2.59000       2.5900       4.9994   
    2.59500       2.5950       4.9994   
    2.60000       2.6000       4.9994   
    2.60500       2.6050       4.9994   
    2.61000       2.6100       4.9994   
    2.61500       2.6150       4.9994   
    2.62000       2.6200       4.9994   
    2.62500       2.6250       4.9994   
    2.63000       2.6300       4.9994   
    2.63500       2.6350       4.9994   
    2.64000       2.6400       4.9994   
    2.64500       2.6450       4.9994   
    2.65000       2.6500       4.9994   
    2.65500       2.6550       4.9994   
    2.66000       2.6600       4.9994   
    2.66500       2.6650       4.9994   
    2.67000       2.6700       4.9994   
    2.67500       2.6750       4.9994   
    2.68000       2.6800       4.9994   
    2.68500       2.6850       4.9994   
    2.69000       2.6900       4.9994   
    2.69500       2.6950       4.9994   
    2.70000       2.7000       4.9994   
    2.70500       2.7050       4.9994   
    2.71000       2.7100       4.9994   
    2.71500       2.7150       4.9994   
    2.72000       2.7200       4.9994   
    2.72500       2.7250       4.9993   
    2.73000       2.7300       4.9993   
    2.73500       2.7350       4.9993   
    2.74000       2.7400       4.9993   
    2.74500       2.7450       4.9993   
    2.75000       2.7500       4.9993   
    2.75500       2.7550       4.9993   
    2.76000       2.7600       4.9993   
    2.76500       2.7650       4.9993   
    2.77000       2.7700       4.9993   
    2.77500       2.7750       4.9993   
    2.78000       2.7800       4.9993   
    2.78500       2.7850       4.9993   
    2.79000       2.7900       4.9993   
    2.79500       2.7950       4.9993   
    2.80000       2.8000       4.9993   
    2.80500       2.8050       4.9993   
    2.81000       2.8100       4.9993   
    2.81500       2.8150       4.9993   
    2.82000       2.8200       4.9993   
    2.82500       2.8250       4.9993   
    2.83000       2.8300       4.9993   
    2.83500       2.8350       4.9993   
    2.84000       2.8400       4.9993   
    2.84500       2.8450       4.9993   
    2.85000       2.8500       4.9993   
    2.85500       2.8550       4.9993   
    2.86000       2.8600       4.9992   
    2.86500       2.8650       4.9992   
    2.87000       2.8700       4.9992   
    2.87500       2.8750       4.9992   
    2.88000       2.8800       4.9992   
    2.88500       2.8850       4.9992   
    2.89000       2.8900       4.9992   
    2.89500       2.8950       4.9992   
    2.90000       2.9000       4.9992   
    2.90500       2.9050       4.9992   
    2.91000       2.9100       4.9992   
    2.91500       2.9150       4.9992   
    2.92000       2.9200       4.9992   
    2.92500       2.9250       4.9992   
    2.93000       2.9300       4.9992   
    2.93500       2.9350       4.9992   
    2.94000       2.9400       4.9992   
    2.94500       2.9450       4.9992   
    2.95000       2.9500       4.9992   
    2.95500       2.9550       4.9992   
    2.96000       2.9600       4.9992   
    2.96500       2.9650       4.9992   
    2.97000       2.9700       4.9991   
    2.97500       2.9750       4.9991   
    2.98000       2.9800       4.9991   
    2.98500       2.9850       4.9991   
    2.99000       2.9900       4.9991   
    2.99500       2.9950       4.9991   
    3.00000       3.0000       4.9991   
    3.00500       3.0050       4.9991   
    3.01000       3.0100       4.9991   
    3.01500       3.0150       4.9991   
    3.02000       3.0200       4.9991   
    3.02500       3.0250       4.9991   
    3.03000       3.0300       4.9991   
    3.03500       3.0350       4.9991   
    3.04000       3.0400       4.9991   
    3.04500       3.0450       4.9991   
    3.05000       3.0500       4.9991   
    3.05500       3.0550       4.9991   
    3.06000       3.0600       4.9991   
    3.06500       3.0650       4.9990   
    3.07000       3.0700       4.9990   
    3.07500       3.0750       4.9990   
    3.08000       3.0800       4.9990   
    3.08500       3.0850       4.9990   
    3.09000       3.0900       4.9990   
    3.09500       3.0950       4.9990   
    3.10000       3.1000       4.9990   
    3.10500       3.1050       4.9990   
    3.11000       3.1100       4.9990   
    3.11500       3.1150       4.9990   
    3.12000       3.1200       4.9990   
    3.12500       3.1250       4.9990   
    3.13000       3.1300       4.9990   
    3.13500       3.1350       4.9990   
    3.14000       3.1400       4.9990   
    3.14500       3.1450       4.9990   
    3.15000       3.1500       4.9989   
    3.15500       3.1550       4.9989   
    3.16000       3.1600       4.9989   
    3.16500       3.1650       4.9989   
    3.17000       3.1700       4.9989   
    3.17500       3.1750       4.9989   
    3.18000       3.1800       4.9989   
    3.18500       3.1850       4.9989   
    3.19000       3.1900       4.9989   
    3.19500       3.1950       4.9989   
    3.20000       3.2000       4.9989   
    3.20500       3.2050       4.9989   
    3.21000       3.2100       4.9989   
    3.21500       3.2150       4.9989   
    3.22000       3.2200       4.9988   
    3.22500       3.2250       4.9988   
    3.23000       3.2300       4.9988   
    3.23500       3.2350       4.9988   
    3.24000       3.2400       4.9988   
    3.24500       3.2450       4.9988   
    3.25000       3.2500       4.9988   
    3.25500       3.2550       4.9988   
    3.26000       3.2600       4.9988   
    3.26500       3.2650       4.9988   
    3.27000       3.2700       4.9988   
    3.27500       3.2750       4.9988   
    3.28000       3.2800       4.9987   
    3.28500       3.2850       4.9987   
    3.29000       3.2900       4.9987   
    3.29500       3.2950       4.9987   
    3.30000       3.3000       4.9987   
    3.30500       3.3050       4.9987   
    3.31000       3.3100       4.9987   
    3.31500       3.3150       4.9987   
    3.32000       3.3200       4.9987   
    3.32500       3.3250       4.9987   
    3.33000       3.3300       4.9986   
    3.33500       3.3350       4.9986   
    3.34000       3.3400       4.9986   
    3.34500       3.3450       4.9986   
    3.35000       3.3500       4.9986   
    3.35500       3.3550       4.9986   
    3.36000       3.3600       4.9986   
    3.36500       3.3650       4.9986   
    3.37000       3.3700       4.9986   
    3.37500       3.3750       4.9986   
    3.38000       3.3800       4.9985   
    3.38500       3.3850       4.9985   
    3.39000       3.3900       4.9985   
    3.39500       3.3950       4.9985   
    3.40000       3.4000       4.9985   
    3.40500       3.4050       4.9985   
    3.41000       3.4100       4.9985   
    3.41500       3.4150       4.9985   
    3.42000       3.4200       4.9984   
    3.42500       3.4250       4.9984   
    3.43000       3.4300       4.9984   
    3.43500       3.4350       4.9984   
    3.44000       3.4400       4.9984   
    3.44500       3.4450       4.9984   
    3.45000       3.4500       4.9984   
    3.45500       3.4550       4.9984   
    3.46000       3.4600       4.9983   
    3.46500       3.4650       4.9983   
    3.47000       3.4700       4.9983   
    3.47500       3.4750       4.9983   
    3.48000       3.4800       4.9983   
    3.48500       3.4850       4.9983   
    3.49000       3.4900       4.9983   
    3.49500       3.4950       4.9982   
    3.50000       3.5000       4.9982   
    3.50500       3.5050       4.9982   
    3.51000       3.5100       4.9982   
    3.51500       3.5150       4.9982   
    3.52000       3.5200       4.9982   
    3.52500       3.5250       4.9982   
    3.53000       3.5300       4.9981   
    3.53500       3.5350       4.9981   
    3.54000       3.5400       4.9981   
    3.54500       3.5450       4.9981   
    3.55000       3.5500       4.9981   
    3.55500       3.5550       4.9981   
    3.56000       3.5600       4.9980   
    3.56500       3.5650       4.9980   
    3.57000       3.5700       4.9980   
    3.57500       3.5750       4.9980   
    3.58000       3.5800       4.9980   
    3.58500       3.5850       4.9979   
    3.59000       3.5900       4.9979   
    3.59500       3.5950       4.9979   
    3.60000       3.6000       4.9979   
    3.60500       3.6050       4.9979   
    3.61000       3.6100       4.9978   
    3.61500       3.6150       4.9978   
    3.62000       3.6200       4.9978   
    3.62500       3.6250       4.9978   
    3.63000       3.6300       4.9978   
    3.63500       3.6350       4.9977   
    3.64000       3.6400       4.9977   
    3.64500       3.6450       4.9977   
    3.65000       3.6500       4.9977   
    3.65500       3.6550       4.9977   
    3.66000       3.6600       4.9976   
    3.66500       3.6650       4.9976   
    3.67000       3.6700       4.9976   
    3.67500       3.6750       4.9976   
    3.68000       3.6800       4.9975   
    3.68500       3.6850       4.9975   
    3.69000       3.6900       4.9975   
    3.69500       3.6950       4.9975   
    3.70000       3.7000       4.9974   
    3.70500       3.7050       4.9974   
    3.71000       3.7100       4.9974   
    3.71500       3.7150       4.9974   
    3.72000       3.7200       4.9973   
    3.72500       3.7250       4.9973   
    3.73000       3.7300       4.9973   
    3.73500       3.7350       4.9973   
    3.74000       3.7400       4.9972   
    3.74500       3.7450       4.9972   
    3.75000       3.7500       4.9972   
    3.75500       3.7550       4.9971   
    3.76000       3.7600       4.9971   
    3.76500       3.7650       4.9971   
    3.77000       3.7700       4.9971   
    3.77500       3.7750       4.9970   
    3.78000       3.7800       4.9970   
    3.78500       3.7850       4.9970   
    3.79000       3.7900       4.9969   
    3.79500       3.7950       4.9969   
    3.80000       3.8000       4.9969   
    3.80500       3.8050       4.9968   
    3.81000       3.8100       4.9968   
    3.81500       3.8150       4.9968   
    3.82000       3.8200       4.9967   
    3.82500       3.8250       4.9967   
    3.83000       3.8300       4.9967   
    3.83500       3.8350       4.9966   
    3.84000       3.8400       4.9966   
    3.84500       3.8450       4.9966   
    3.85000       3.8500       4.9965   
    3.85500       3.8550       4.9965   
    3.86000       3.8600       4.9964   
    3.86500       3.8650       4.9964   
    3.87000       3.8700       4.9964   
    3.87500       3.8750       4.9963   
    3.88000       3.8800       4.9963   
    3.88500       3.8850       4.9962   
    3.89000       3.8900       4.9962   
    3.89500       3.8950       4.9962   
    3.90000       3.9000       4.9961   
    3.90500       3.9050       4.9961   
    3.91000       3.9100       4.9960   
    3.91500       3.9150       4.9960   
    3.92000       3.9200       4.9959   
    3.92500       3.9250       4.9959   
    3.93000       3.9300       4.9958   
    3.93500       3.9350       4.9958   
    3.94000       3.9400       4.9957   
    3.94500       3.9450       4.9957   
    3.95000       3.9500       4.9957   
    3.95500       3.9550       4.9956   
    3.96000       3.9600       4.9956   
    3.96500       3.9650       4.9955   
    3.97000       3.9700       4.9954   
    3.97500       3.9750       4.9954   
    3.98000       3.9800       4.9953   
    3.98500       3.9850       4.9953   
    3.99000       3.9900       4.9952   
    3.99500       3.9950       4.9952   
    4.00000       4.0000       4.9951   
    4.00500       4.0050       4.9951   
    4.01000       4.0100       4.9950   
    4.01500       4.0150       4.9949   
    4.02000       4.0200       4.9949   
    4.02500       4.0250       4.9948   
    4.03000       4.0300       4.9948   
    4.03500       4.0350       4.9947   
    4.04000       4.0400       4.9946   
    4.04500       4.0450       4.9946   
    4.05000       4.0500       4.9945   
    4.05500       4.0550       4.9944   
    4.06000       4.0600       4.9944   
    4.06500       4.0650       4.9943   
    4.07000       4.0700       4.9942   
    4.07500       4.0750       4.9942   
    4.08000       4.0800       4.9941   
    4.08500       4.0850       4.9940   
    4.09000       4.0900       4.9940   
    4.09500       4.0950       4.9939   
    4.10000       4.1000       4.9938   
    4.10500       4.1050       4.9937   
    4.11000       4.1100       4.9937   
    4.11500       4.1150       4.9936   
    4.12000       4.1200       4.9935   
    4.12500       4.1250       4.9934   
    4.13000       4.1300       4.9933   
    4.13500       4.1350       4.9933   
    4.14000       4.1400       4.9932   
    4.14500       4.1450       4.9931   
    4.15000       4.1500       4.9930   
    4.15500       4.1550       4.9929   
    4.16000       4.1600       4.9928   
    4.16500       4.1650       4.9927   
    4.17000       4.1700       4.9926   
    4.17500       4.1750       4.9926   
    4.18000       4.1800       4.9925   
    4.18500       4.1850       4.9924   
    4.19000       4.1900       4.9923   
    4.19500       4.1950       4.9922   
    4.20000       4.2000       4.9921   
    4.20500       4.2050       4.9920   
    4.21000       4.2100       4.9919   
    4.21500       4.2150       4.9918   
    4.22000       4.2200       4.9917   
    4.22500       4.2250       4.9916   
    4.23000       4.2300       4.9915   
    4.23500       4.2350       4.9913   
    4.24000       4.2400       4.9912   
    4.24500       4.2450       4.9911   
    4.25000       4.2500       4.9910   
    4.25500       4.2550       4.9909   
    4.26000       4.2600       4.9908   
    4.26500       4.2650       4.9907   
    4.27000       4.2700       4.9905   
    4.27500       4.2750       4.9904   
    4.28000       4.2800       4.9903   
    4.28500       4.2850       4.9902   
    4.29000       4.2900       4.9900   
    4.29500       4.2950       4.9899   
    4.30000       4.3000       4.9898   
    4.30500       4.3050       4.9896   
    4.31000       4.3100       4.9895   
    4.31500       4.3150       4.9894   
    4.32000       4.3200       4.9892   
    4.32500       4.3250       4.9891   
    4.33000       4.3300       4.9890   
    4.33500       4.3350       4.9888   
    4.34000       4.3400       4.9887   
    4.34500       4.3450       4.9885   
    4.35000       4.3500       4.9884   
    4.35500       4.3550       4.9882   
    4.36000       4.3600       4.9881   
    4.36500       4.3650       4.9879   
    4.37000       4.3700       4.9877   
    4.37500       4.3750       4.9876   
    4.38000       4.3800       4.9874   
    4.38500       4.3850       4.9872   
    4.39000       4.3900       4.9871   
    4.39500       4.3950       4.9869   
    4.40000       4.4000       4.9867   
    4.40500       4.4050       4.9866   
    4.41000       4.4100       4.9864   
    4.41500       4.4150       4.9862   
    4.42000       4.4200       4.9860   
    4.42500       4.4250       4.9858   
    4.43000       4.4300       4.9856   
    4.43500       4.4350       4.9854   
    4.44000       4.4400       4.9853   
    4.44500       4.4450       4.9851   
    4.45000       4.4500       4.9849   
    4.45500       4.4550       4.9847   
    4.46000       4.4600       4.9844   
    4.46500       4.4650       4.9842   
    4.47000       4.4700       4.9840   
    4.47500       4.4750       4.9838   
    4.48000       4.4800       4.9836   
    4.48500       4.4850       4.9834   
    4.49000       4.4900       4.9832   
    4.49500       4.4950       4.9829   
    4.50000       4.5000       4.9827   
    4.50500       4.5050       4.9825   
    4.51000       4.5100       4.9822   
    4.51500       4.5150       4.9820   
    4.52000       4.5200       4.9817   
    4.52500       4.5250       4.9815   
    4.53000       4.5300       4.9812   
    4.53500       4.5350       4.9810   
    4.54000       4.5400       4.9807   
    4.54500       4.5450       4.9805   
    4.55000       4.5500       4.9802   
    4.55500       4.5550       4.9799   
    4.56000       4.5600       4.9797   
    4.56500       4.5650       4.9794   
    4.57000       4.5700       4.9791   
    4.57500       4.5750       4.9788   
    4.58000       4.5800       4.9785   
    4.58500       4.5850       4.9783   
    4.59000       4.5900       4.9780   
    4.59500       4.5950       4.9777   
    4.60000       4.6000       4.9774   
    4.60500       4.6050       4.9770   
    4.61000       4.6100       4.9767   
    4.61500       4.6150       4.9764   
    4.62000       4.6200       4.9761   
    4.62500       4.6250       4.9758   
    4.63000       4.6300       4.9754   
    4.63500       4.6350       4.9751   
    4.64000       4.6400       4.9748   
    4.64500       4.6450       4.9744   
    4.65000       4.6500       4.9741   
    4.65500       4.6550       4.9737   
    4.66000       4.6600       4.9733   
    4.66500       4.6650       4.9730   
    4.67000       4.6700       4.9726   
    4.67500       4.6750       4.9722   
    4.68000       4.6800       4.9718   
    4.68500       4.6850       4.9715   
    4.69000       4.6900       4.9711   
    4.69500       4.6950       4.9707   
    4.70000       4.7000       4.9703   
    4.70500       4.7050       4.9699   
    4.71000       4.7100       4.9694   
    4.71500       4.7150       4.9690   
    4.72000       4.7200       4.9686   
    4.72500       4.7250       4.9682   
    4.73000       4.7300       4.9677   
    4.73500       4.7350       4.9673   
    4.74000       4.7400       4.9668   
    4.74500       4.7450       4.9664   
    4.75000       4.7500       4.9659   
    4.75500       4.7550       4.9654   
    4.76000       4.7600       4.9650   
    4.76500       4.7650       4.9645   
    4.77000       4.7700       4.9640   
    4.77500       4.7750       4.9635   
    4.78000       4.7800       4.9630   
    4.78500       4.7850       4.9625   
    4.79000       4.7900       4.9620   
    4.79500       4.7950       4.9614   
    4.80000       4.8000       4.9609   
    4.80500       4.8050       4.9604   
    4.81000       4.8100       4.9598   
    4.81500       4.8150       4.9593   
    4.82000       4.8200       4.9587   
    4.82500       4.8250       4.9581   
    4.83000       4.8300       4.9575   
    4.83500       4.8350       4.9570   
    4.84000       4.8400       4.9564   
    4.84500       4.8450       4.9558   
    4.85000       4.8500       4.9551   
    4.85500       4.8550       4.9545   
    4.86000       4.8600       4.9539   
    4.86500       4.8650       4.9533   
    4.87000       4.8700       4.9526   
    4.87500       4.8750       4.9520   
    4.88000       4.8800       4.9513   
    4.88500       4.8850       4.9506   
    4.89000       4.8900       4.9499   
    4.89500       4.8950       4.9492   
    4.90000       4.9000       4.9485   
    4.90500       4.9050       4.9478   
    4.91000       4.9100       4.9471   
    4.91500       4.9150       4.9464   
    4.92000       4.9200       4.9456   
    4.92500       4.9250       4.9449   
    4.93000       4.9300       4.9441   
    4.93500       4.9350       4.9433   
    4.94000       4.9400       4.9426   
    4.94500       4.9450       4.9418   
    4.95000       4.9500       4.9410   
    4.95500       4.9550       4.9401   
    4.96000       4.9600       4.9393   
    4.96500       4.9650       4.9385   
    4.97000       4.9700       4.9376   
    4.97500       4.9750       4.9368   
    4.98000       4.9800       4.9359   
    4.98500       4.9850       4.9350   
    4.99000       4.9900       4.9341   
    4.99500       4.9950       4.9332   
    5.00000       5.0000       4.9323   
    5.00500       5.0050       4.9313   
    5.01000       5.0100       4.9304   
    5.01500       5.0150       4.9294   
    5.02000       5.0200       4.9284   
    5.02500       5.0250       4.9275   
    5.03000       5.0300       4.9265   
    5.03500       5.0350       4.9254   
    5.04000       5.0400       4.9244   
    5.04500       5.0450       4.9234   
    5.05000       5.0500       4.9223   
    5.05500       5.0550       4.9212   
    5.06000       5.0600       4.9202   
    5.06500       5.0650       4.9191   
    5.07000       5.0700       4.9179   
    5.07500       5.0750       4.9168   
    5.08000       5.0800       4.9157   
    5.08500       5.0850       4.9145   
    5.09000       5.0900       4.9133   
    5.09500       5.0950       4.9121   
    5.10000       5.1000       4.9109   
    5.10500       5.1050       4.9097   
    5.11000       5.1100       4.9085   
    5.11500       5.1150       4.9072   
    5.12000       5.1200       4.9059   
    5.12500       5.1250       4.9046   
    5.13000       5.1300       4.9033   
    5.13500       5.1350       4.9020   
    5.14000       5.1400       4.9007   
    5.14500       5.1450       4.8993   
    5.15000       5.1500       4.8979   
    5.15500       5.1550       4.8965   
    5.16000       5.1600       4.8951   
    5.16500       5.1650       4.8937   
    5.17000       5.1700       4.8922   
    5.17500       5.1750       4.8908   
    5.18000       5.1800       4.8893   
    5.18500       5.1850       4.8878   
    5.19000       5.1900       4.8862   
    5.19500       5.1950       4.8847   
    5.20000       5.2000       4.8831   
    5.20500       5.2050       4.8815   
    5.21000       5.2100       4.8799   
    5.21500       5.2150       4.8783   
    5.22000       5.2200       4.8766   
    5.22500       5.2250       4.8749   
    5.23000       5.2300       4.8732   
    5.23500       5.2350       4.8715   
    5.24000       5.2400       4.8698   
    5.24500       5.2450       4.8680   
    5.25000       5.2500       4.8662   
    5.25500       5.2550       4.8644   
    5.26000       5.2600       4.8626   
    5.26500       5.2650       4.8607   
    5.27000       5.2700       4.8588   
    5.27500       5.2750       4.8569   
    5.28000       5.2800       4.8550   
    5.28500       5.2850       4.8531   
    5.29000       5.2900       4.8511   
    5.29500       5.2950       4.8491   
    5.30000       5.3000       4.8471   
    5.30500       5.3050       4.8450   
    5.31000       5.3100       4.8429   
    5.31500       5.3150       4.8408   
    5.32000       5.3200       4.8387   
    5.32500       5.3250       4.8365   
    5.33000       5.3300       4.8343   
    5.33500       5.3350       4.8321   
    5.34000       5.3400       4.8299   
    5.34500       5.3450       4.8276   
    5.35000       5.3500       4.8253   
    5.35500       5.3550       4.8230   
    5.36000       5.3600       4.8206   
    5.36500       5.3650       4.8183   
    5.37000       5.3700       4.8159   
    5.37500       5.3750       4.8134   
    5.38000       5.3800       4.8109   
    5.38500       5.3850       4.8084   
    5.39000       5.3900       4.8059   
    5.39500       5.3950       4.8034   
    5.40000       5.4000       4.8008   
    5.40500       5.4050       4.7981   
    5.41000       5.4100       4.7955   
    5.41500       5.4150       4.7928   
    5.42000       5.4200       4.7901   
    5.42500       5.4250       4.7873   
    5.43000       5.4300       4.7845   
    5.43500       5.4350       4.7817   
    5.44000       5.4400       4.7789   
    5.44500       5.4450       4.7760   
    5.45000       5.4500       4.7731   
    5.45500       5.4550       4.7701   
    5.46000       5.4600       4.7671   
    5.46500       5.4650       4.7641   
    5.47000       5.4700       4.7611   
    5.47500       5.4750       4.7580   
    5.48000       5.4800       4.7549   
    5.48500       5.4850       4.7517   
    5.49000       5.4900       4.7485   
    5.49500       5.4950       4.7453   
    5.50000       5.5000       4.7420   
    5.50500       5.5050       4.7387   
    5.51000       5.5100       4.7353   
    5.51500       5.5150       4.7320   
    5.52000       5.5200       4.7285   
    5.52500       5.5250       4.7251   
    5.53000       5.5300       4.7216   
    5.53500       5.5350       4.7180   
    5.54000       5.5400       4.7145   
    5.54500       5.5450       4.7109   
    5.55000       5.5500       4.7072   
    5.55500       5.5550       4.7035   
[...]
   57.78500      57.7850    -186.3551   
   57.79000      57.7900    -186.3852   
   57.79500      57.7950    -186.4153   
   57.80000      57.8000    -186.4454   
   57.80500      57.8050    -186.4755   
   57.81000      57.8100    -186.5056   
   57.81500      57.8150    -186.5357   
   57.82000      57.8200    -186.5658   
   57.82500      57.8250    -186.5959   
   57.83000      57.8300    -186.6260   
   57.83500      57.8350    -186.6561   
   57.84000      57.8400    -186.6863   
   57.84500      57.8450    -186.7164   
   57.85000      57.8500    -186.7465   
   57.85500      57.8550    -186.7766   
   57.86000      57.8600    -186.8067   
   57.86500      57.8650    -186.8368   
   57.87000      57.8700    -186.8669   
   57.87500      57.8750    -186.8970   
   57.88000      57.8800    -186.9271   
   57.88500      57.8850    -186.9572   
   57.89000      57.8900    -186.9874   
   57.89500      57.8950    -187.0175   
   57.90000      57.9000    -187.0476   
   57.90500      57.9050    -187.0777   
   57.91000      57.9100    -187.1078   
   57.91500      57.9150    -187.1379   
   57.92000      57.9200    -187.1680   
   57.92500      57.9250    -187.1981   
   57.93000      57.9300    -187.2283   
   57.93500      57.9350    -187.2584   
   57.94000      57.9400    -187.2885   
   57.94500      57.9450    -187.3186   
   57.95000      57.9500    -187.3487   
   57.95500      57.9550    -187.3788   
   57.96000      57.9600    -187.4089   
   57.96500      57.9650    -187.4391   
   57.97000      57.9700    -187.4692   
   57.97500      57.9750    -187.4993   
   57.98000      57.9800    -187.5294   
   57.98500      57.9850    -187.5595   
   57.99000      57.9900    -187.5896   
   57.99500      57.9950    -187.6197   
   58.00000      58.0000    -187.6499   
   58.00500      58.0050    -187.6800   
   58.01000      58.0100    -187.7101   
   58.01500      58.0150    -187.7402   
   58.02000      58.0200    -187.7703   
   58.02500      58.0250    -187.8005   
   58.03000      58.0300    -187.8306   
   58.03500      58.0350    -187.8607   
   58.04000      58.0400    -187.8908   
   58.04500      58.0450    -187.9209   
   58.05000      58.0500    -187.9510   
   58.05500      58.0550    -187.9812   
   58.06000      58.0600    -188.0113   
   58.06500      58.0650    -188.0414   
   58.07000      58.0700    -188.0715   
   58.07500      58.0750    -188.1016   
   58.08000      58.0800    -188.1318   
   58.08500      58.0850    -188.1619   
   58.09000      58.0900    -188.1920   
   58.09500      58.0950    -188.2221   
   58.10000      58.1000    -188.2522   
   58.10500      58.1050    -188.2824   
   58.11000      58.1100    -188.3125   
   58.11500      58.1150    -188.3426   
   58.12000      58.1200    -188.3727   
   58.12500      58.1250    -188.4029   
   58.13000      58.1300    -188.4330   
   58.13500      58.1350    -188.4631   
   58.14000      58.1400    -188.4932   
   58.14500      58.1450    -188.5233   
   58.15000      58.1500    -188.5535   
   58.15500      58.1550    -188.5836   
   58.16000      58.1600    -188.6137   
   58.16500      58.1650    -188.6438   
   58.17000      58.1700    -188.6740   
   58.17500      58.1750    -188.7041   
   58.18000      58.1800    -188.7342   
   58.18500      58.1850    -188.7643   
   58.19000      58.1900    -188.7945   
   58.19500      58.1950    -188.8246   
   58.20000      58.2000    -188.8547   
   58.20500      58.2050    -188.8848   
   58.21000      58.2100    -188.9150   
   58.21500      58.2150    -188.9451   
   58.22000      58.2200    -188.9752   
   58.22500      58.2250    -189.0053   
   58.23000      58.2300    -189.0355   
   58.23500      58.2350    -189.0656   
   58.24000      58.2400    -189.0957   
   58.24500      58.2450    -189.1258   
   58.25000      58.2500    -189.1560   
   58.25500      58.2550    -189.1861   
   58.26000      58.2600    -189.2162   
   58.26500      58.2650    -189.2464   
   58.27000      58.2700    -189.2765   
   58.27500      58.2750    -189.3066   
   58.28000      58.2800    -189.3367   
   58.28500      58.2850    -189.3669   
   58.29000      58.2900    -189.3970   
   58.29500      58.2950    -189.4271   
   58.30000      58.3000    -189.4573   
   58.30500      58.3050    -189.4874   
   58.31000      58.3100    -189.5175   
   58.31500      58.3150    -189.5477   
   58.32000      58.3200    -189.5778   
   58.32500      58.3250    -189.6079   
   58.33000      58.3300    -189.6381   
   58.33500      58.3350    -189.6682   
   58.34000      58.3400    -189.6983   
   58.34500      58.3450    -189.7284   
   58.35000      58.3500    -189.7586   
   58.35500      58.3550    -189.7887   
   58.36000      58.3600    -189.8188   
   58.36500      58.3650    -189.8490   
   58.37000      58.3700    -189.8791   
   58.37500      58.3750    -189.9092   
   58.38000      58.3800    -189.9394   
   58.38500      58.3850    -189.9695   
   58.39000      58.3900    -189.9996   
   58.39500      58.3950    -190.0298   
   58.40000      58.4000    -190.0599   
   58.40500      58.4050    -190.0900   
   58.41000      58.4100    -190.1202   
   58.41500      58.4150    -190.1503   
   58.42000      58.4200    -190.1805   
   58.42500      58.4250    -190.2106   
   58.43000      58.4300    -190.2407   
   58.43500      58.4350    -190.2709   
   58.44000      58.4400    -190.3010   
   58.44500      58.4450    -190.3311   
   58.45000      58.4500    -190.3613   
   58.45500      58.4550    -190.3914   
   58.46000      58.4600    -190.4215   
   58.46500      58.4650    -190.4517   
   58.47000      58.4700    -190.4818   
   58.47500      58.4750    -190.5120   
   58.48000      58.4800    -190.5421   
   58.48500      58.4850    -190.5722   
   58.49000      58.4900    -190.6024   
   58.49500      58.4950    -190.6325   
   58.50000      58.5000    -190.6626   
   58.50500      58.5050    -190.6928   
   58.51000      58.5100    -190.7229   
   58.51500      58.5150    -190.7531   
   58.52000      58.5200    -190.7832   
   58.52500      58.5250    -190.8133   
   58.53000      58.5300    -190.8435   
   58.53500      58.5350    -190.8736   
   58.54000      58.5400    -190.9038   
   58.54500      58.5450    -190.9339   
   58.55000      58.5500    -190.9640   
   58.55500      58.5550    -190.9942   
   58.56000      58.5600    -191.0243   
   58.56500      58.5650    -191.0545   
   58.57000      58.5700    -191.0846   
   58.57500      58.5750    -191.1148   
   58.58000      58.5800    -191.1449   
   58.58500      58.5850    -191.1750   
   58.59000      58.5900    -191.2052   
   58.59500      58.5950    -191.2353   
   58.60000      58.6000    -191.2655   
   58.60500      58.6050    -191.2956   
   58.61000      58.6100    -191.3258   
   58.61500      58.6150    -191.3559   
   58.62000      58.6200    -191.3860   
   58.62500      58.6250    -191.4162   
   58.63000      58.6300    -191.4463   
   58.63500      58.6350    -191.4765   
   58.64000      58.6400    -191.5066   
   58.64500      58.6450    -191.5368   
   58.65000      58.6500    -191.5669   
   58.65500      58.6550    -191.5971   
   58.66000      58.6600    -191.6272   
   58.66500      58.6650    -191.6573   
   58.67000      58.6700    -191.6875   
   58.67500      58.6750    -191.7176   
   58.68000      58.6800    -191.7478   
   58.68500      58.6850    -191.7779   
   58.69000      58.6900    -191.8081   
   58.69500      58.6950    -191.8382   
   58.70000      58.7000    -191.8684   
   58.70500      58.7050    -191.8985   
   58.71000      58.7100    -191.9287   
   58.71500      58.7150    -191.9588   
   58.72000      58.7200    -191.9890   
   58.72500      58.7250    -192.0191   
   58.73000      58.7300    -192.0493   
   58.73500      58.7350    -192.0794   
   58.74000      58.7400    -192.1096   
   58.74500      58.7450    -192.1397   
   58.75000      58.7500    -192.1699   
   58.75500      58.7550    -192.2000   
   58.76000      58.7600    -192.2302   
   58.76500      58.7650    -192.2603   
   58.77000      58.7700    -192.2905   
   58.77500      58.7750    -192.3206   
   58.78000      58.7800    -192.3508   
   58.78500      58.7850    -192.3809   
   58.79000      58.7900    -192.4111   
   58.79500      58.7950    -192.4412   
   58.80000      58.8000    -192.4714   
   58.80500      58.8050    -192.5015   
   58.81000      58.8100    -192.5317   
   58.81500      58.8150    -192.5618   
   58.82000      58.8200    -192.5920   
   58.82500      58.8250    -192.6221   
   58.83000      58.8300    -192.6523   
   58.83500      58.8350    -192.6824   
   58.84000      58.8400    -192.7126   
   58.84500      58.8450    -192.7427   
   58.85000      58.8500    -192.7729   
   58.85500      58.8550    -192.8030   
   58.86000      58.8600    -192.8332   
   58.86500      58.8650    -192.8634   
   58.87000      58.8700    -192.8935   
   58.87500      58.8750    -192.9237   
   58.88000      58.8800    -192.9538   
   58.88500      58.8850    -192.9840   
   58.89000      58.8900    -193.0141   
   58.89500      58.8950    -193.0443   
   58.90000      58.9000    -193.0744   
   58.90500      58.9050    -193.1046   
   58.91000      58.9100    -193.1348   
   58.91500      58.9150    -193.1649   
   58.92000      58.9200    -193.1951   
   58.92500      58.9250    -193.2252   
   58.93000      58.9300    -193.2554   
   58.93500      58.9350    -193.2855   
   58.94000      58.9400    -193.3157   
   58.94500      58.9450    -193.3459   
   58.95000      58.9500    -193.3760   
   58.95500      58.9550    -193.4062   
   58.96000      58.9600    -193.4363   
   58.96500      58.9650    -193.4665   
   58.97000      58.9700    -193.4967   
   58.97500      58.9750    -193.5268   
   58.98000      58.9800    -193.5570   
   58.98500      58.9850    -193.5871   
   58.99000      58.9900    -193.6173   
   58.99500      58.9950    -193.6475   
   59.00000      59.0000    -193.6776   
   59.00500      59.0050    -193.7078   
   59.01000      59.0100    -193.7379   
   59.01500      59.0150    -193.7681   
   59.02000      59.0200    -193.7983   
   59.02500      59.0250    -193.8284   
   59.03000      59.0300    -193.8586   
   59.03500      59.0350    -193.8887   
   59.04000      59.0400    -193.9189   
   59.04500      59.0450    -193.9491   
   59.05000      59.0500    -193.9792   
   59.05500      59.0550    -194.0094   
   59.06000      59.0600    -194.0396   
   59.06500      59.0650    -194.0697   
   59.07000      59.0700    -194.0999   
   59.07500      59.0750    -194.1300   
   59.08000      59.0800    -194.1602   
   59.08500      59.0850    -194.1904   
   59.09000      59.0900    -194.2205   
   59.09500      59.0950    -194.2507   
   59.10000      59.1000    -194.2809   
   59.10500      59.1050    -194.3110   
   59.11000      59.1100    -194.3412   
   59.11500      59.1150    -194.3714   
   59.12000      59.1200    -194.4015   
   59.12500      59.1250    -194.4317   
   59.13000      59.1300    -194.4619   
   59.13500      59.1350    -194.4920   
   59.14000      59.1400    -194.5222   
   59.14500      59.1450    -194.5524   
   59.15000      59.1500    -194.5825   
   59.15500      59.1550    -194.6127   
   59.16000      59.1600    -194.6429   
   59.16500      59.1650    -194.6730   
   59.17000      59.1700    -194.7032   
   59.17500      59.1750    -194.7334   
   59.18000      59.1800    -194.7635   
   59.18500      59.1850    -194.7937   
   59.19000      59.1900    -194.8239   
   59.19500      59.1950    -194.8540   
   59.20000      59.2000    -194.8842   
   59.20500      59.2050    -194.9144   
   59.21000      59.2100    -194.9445   
   59.21500      59.2150    -194.9747   
   59.22000      59.2200    -195.0049   
   59.22500      59.2250    -195.0350   
   59.23000      59.2300    -195.0652   
   59.23500      59.2350    -195.0954   
   59.24000      59.2400    -195.1256   
   59.24500      59.2450    -195.1557   
   59.25000      59.2500    -195.1859   
   59.25500      59.2550    -195.2161   
   59.26000      59.2600    -195.2462   
   59.26500      59.2650    -195.2764   
   59.27000      59.2700    -195.3066   
   59.27500      59.2750    -195.3368   
   59.28000      59.2800    -195.3669   
   59.28500      59.2850    -195.3971   
   59.29000      59.2900    -195.4273   
   59.29500      59.2950    -195.4574   
   59.30000      59.3000    -195.4876   
   59.30500      59.3050    -195.5178   
   59.31000      59.3100    -195.5480   
   59.31500      59.3150    -195.5781   
   59.32000      59.3200    -195.6083   
   59.32500      59.3250    -195.6385   
   59.33000      59.3300    -195.6687   
   59.33500      59.3350    -195.6988   
   59.34000      59.3400    -195.7290   
   59.34500      59.3450    -195.7592   
   59.35000      59.3500    -195.7894   
   59.35500      59.3550    -195.8195   
   59.36000      59.3600    -195.8497   
   59.36500      59.3650    -195.8799   
   59.37000      59.3700    -195.9101   
   59.37500      59.3750    -195.9402   
   59.38000      59.3800    -195.9704   
   59.38500      59.3850    -196.0006   
   59.39000      59.3900    -196.0308   
   59.39500      59.3950    -196.0609   
   59.40000      59.4000    -196.0911   
   59.40500      59.4050    -196.1213   
   59.41000      59.4100    -196.1515   
   59.41500      59.4150    -196.1817   
   59.42000      59.4200    -196.2118   
   59.42500      59.4250    -196.2420   
   59.43000      59.4300    -196.2722   
   59.43500      59.4350    -196.3024   
   59.44000      59.4400    -196.3325   
   59.44500      59.4450    -196.3627   
   59.45000      59.4500    -196.3929   
   59.45500      59.4550    -196.4231   
   59.46000      59.4600    -196.4533   
   59.46500      59.4650    -196.4834   
   59.47000      59.4700    -196.5136   
   59.47500      59.4750    -196.5438   
   59.48000      59.4800    -196.5740   
   59.48500      59.4850    -196.6042   
   59.49000      59.4900    -196.6343   
   59.49500      59.4950    -196.6645   
   59.50000      59.5000    -196.6947   
   59.50500      59.5050    -196.7249   
   59.51000      59.5100    -196.7551   
   59.51500      59.5150    -196.7853   
   59.52000      59.5200    -196.8154   
   59.52500      59.5250    -196.8456   
   59.53000      59.5300    -196.8758   
   59.53500      59.5350    -196.9060   
   59.54000      59.5400    -196.9362   
   59.54500      59.5450    -196.9664   
   59.55000      59.5500    -196.9965   
   59.55500      59.5550    -197.0267   
   59.56000      59.5600    -197.0569   
   59.56500      59.5650    -197.0871   
   59.57000      59.5700    -197.1173   
   59.57500      59.5750    -197.1475   
   59.58000      59.5800    -197.1776   
   59.58500      59.5850    -197.2078   
   59.59000      59.5900    -197.2380   
   59.59500      59.5950    -197.2682   
   59.60000      59.6000    -197.2984   
   59.60500      59.6050    -197.3286   
   59.61000      59.6100    -197.3588   
   59.61500      59.6150    -197.3889   
   59.62000      59.6200    -197.4191   
   59.62500      59.6250    -197.4493   
   59.63000      59.6300    -197.4795   
   59.63500      59.6350    -197.5097   
   59.64000      59.6400    -197.5399   
   59.64500      59.6450    -197.5701   
   59.65000      59.6500    -197.6002   
   59.65500      59.6550    -197.6304   
   59.66000      59.6600    -197.6606   
   59.66500      59.6650    -197.6908   
   59.67000      59.6700    -197.7210   
   59.67500      59.6750    -197.7512   
   59.68000      59.6800    -197.7814   
   59.68500      59.6850    -197.8116   
   59.69000      59.6900    -197.8418   
   59.69500      59.6950    -197.8719   
   59.70000      59.7000    -197.9021   
   59.70500      59.7050    -197.9323   
   59.71000      59.7100    -197.9625   
   59.71500      59.7150    -197.9927   
   59.72000      59.7200    -198.0229   
   59.72500      59.7250    -198.0531   
   59.73000      59.7300    -198.0833   
   59.73500      59.7350    -198.1135   
   59.74000      59.7400    -198.1437   
   59.74500      59.7450    -198.1738   
   59.75000      59.7500    -198.2040   
   59.75500      59.7550    -198.2342   
   59.76000      59.7600    -198.2644   
   59.76500      59.7650    -198.2946   
   59.77000      59.7700    -198.3248   
   59.77500      59.7750    -198.3550   
   59.78000      59.7800    -198.3852   
   59.78500      59.7850    -198.4154   
   59.79000      59.7900    -198.4456   
   59.79500      59.7950    -198.4758   
   59.80000      59.8000    -198.5060   
   59.80500      59.8050    -198.5362   
   59.81000      59.8100    -198.5664   
   59.81500      59.8150    -198.5965   
   59.82000      59.8200    -198.6267   
   59.82500      59.8250    -198.6569   
   59.83000      59.8300    -198.6871   
   59.83500      59.8350    -198.7173   
   59.84000      59.8400    -198.7475   
   59.84500      59.8450    -198.7777   
   59.85000      59.8500    -198.8079   
   59.85500      59.8550    -198.8381   
   59.86000      59.8600    -198.8683   
   59.86500      59.8650    -198.8985   
   59.87000      59.8700    -198.9287   
   59.87500      59.8750    -198.9589   
   59.88000      59.8800    -198.9891   
   59.88500      59.8850    -199.0193   
   59.89000      59.8900    -199.0495   
   59.89500      59.8950    -199.0797   
   59.90000      59.9000    -199.1099   
   59.90500      59.9050    -199.1401   
   59.91000      59.9100    -199.1703   
   59.91500      59.9150    -199.2005   
   59.92000      59.9200    -199.2307   
   59.92500      59.9250    -199.2609   
   59.93000      59.9300    -199.2911   
   59.93500      59.9350    -199.3213   
   59.94000      59.9400    -199.3515   
   59.94500      59.9450    -199.3817   
   59.95000      59.9500    -199.4119   
   59.95500      59.9550    -199.4421   
   59.96000      59.9600    -199.4723   
   59.96500      59.9650    -199.5025   
   59.97000      59.9700    -199.5327   
   59.97500      59.9750    -199.5629   
   59.98000      59.9800    -199.5931   
   59.98500      59.9850    -199.6233   
   59.99000      59.9900    -199.6535   
   59.99500      59.9950    -199.6837   
   60.00000      60.0000    -199.7139   
y

          ***** job concluded
1****** HSPICE -- C-2009.03-SP1 32-BIT (May 25 2009) winnt ******               
 ******  
 ** 40 cascaded, 2 paralleled cells

  ******  job statistics summary tnom=  25.000 temp=  25.000 *****

  ******  HSPICE Threads Information  ******
  Command Line Threads Count                  :     1
  Available CPU Count                         :     8
  Actual Model Evaluation(Load) Threads Count :     1
  Actual Solver Threads Count                 :     1


  ******  Circuit Statistics  ******
  # nodes       =      41 # elements   =      73
  # resistors   =      42 # capacitors =       0 # inductors   =       0
  # mutual_inds =       0 # vccs       =       0 # vcvs        =       0
  # cccs        =       0 # ccvs       =       0 # volt_srcs   =       1
  # curr_srcs   =      12 # diodes     =      18 # bjts        =       0
  # jfets       =       0 # mosfets    =       0 # U elements  =       0
  # T elements  =       0 # W elements =       0 # B elements  =       0
  # S elements  =       0 # P elements =       0 # va device   =       0


  ******  Runtime Statistics (seconds)  ******

  analysis           time    # points   tot. iter  conv.iter
  op point           0.00           1           0
  dc sweep           1.29       12001       24043
  readin             0.11
  errchk             0.02
  setup              0.03
  output             0.04


           total memory used          369  kbytes
           total cpu time            1.53 seconds
           total elapsed time        1.57 seconds
           job started at     16:53:59 06/23/2015
           job ended   at     16:54:01 06/23/2015


 Init: hspice initialization file: C:\synopsys\Hspice_C-2009.03-SP1\hspice.ini
  lic: Release hspice token(s) 
