 ****** HSPICE -- C-2009.03-SP1 32-BIT (May 25 2009) winnt ******               
  Copyright (C) 2009 Synopsys, Inc. All Rights Reserved.                        
  Unpublished-rights reserved under US copyright laws.
  This program is protected by law and is subject to the 
  terms and conditions of the license agreement from Synopsys.
  Use of this program is your acceptance to be bound by the 
  license agreement. HSPICE is the trademark of Synopsys, Inc.
  Input File: C:\Users\Administrator\Desktop\MultiLevel\cwModel.sp              
  lic:  
  lic: FLEXlm: v8.5b 
  lic: USER:   Administrator        HOSTNAME: WIN-HBGPFB5Q4D3 
  lic: HOSTID: "002268384615 005056c00001 005056c00008" PID:      6632 
  lic: Using FLEXlm license file: 
  lic: C:\synopsys\hspice_2009-03.lic 
  lic: Checkout 1 hspice 
  lic: License/Maintenance for hspice will expire on 31-dec-2020/2007.9 
  lic: NODE LOCKED license on hostid "002268384615 005056c00001 005056c00008" 
  lic:   
 Init: read install configuration file: C:\synopsys\Hspice_C-2009.03-SP1\meta.cfg
 Init: hspice initialization file: C:\synopsys\Hspice_C-2009.03-SP1\hspice.ini




1****** HSPICE -- C-2009.03-SP1 32-BIT (May 25 2009) winnt ******               
 ******  
 ** 40 cascaded, 2 paralleled cells

  ******  diode model parameters tnom=  25.000 temp=  25.000 *****
 ********************************************************
 *** common model parameters model name:   0:diode11_****
 ********************************************************

     names  values   units     names  values   units     names  values   units
     -----  ------   -----     -----  ------   -----     -----  ------   -----

   1*** dc breakdown parameters ***
       vb=   0.    volts        ibv=   1.00m amps   

   2*** parasitic resistance parameters ***
       rs=   0.    ohms   

   3*** capacitance parameters ***
       fc= 500.00m              fcs= 500.00m                m= 500.00m        
     mjsw= 330.00m               pb= 800.00m volts        php= 800.00m volts  
       tt=   0.    secs         cjo=   0.    f/area       cjp=   0.    f/pj   

   4*** temperature effect parameters ***
     tlev=   0.               tlevc=   0.                 tcv=   0.    v/deg k
      trs=   0.    /deg         cta=   0.    /deg         ctp=   0.    /deg   
      xti=   3.00            xtitun=   3.00               keg=   1.00         
       eg=   1.11  ev          gap1= 702.00u  ev/deg     gap2=   1.11k  deg   
     ttt1=   0.    /deg        ttt2=   0.    /deg2        tm1=   0.    /deg   
      tm2=   0.    /deg2        tpb=   0.    v/deg k     tphp=   0.    v/deg k
     tref=  25.00   deg c 

   5*** noise parameters ***
       kf=   0.                  af=   1.00         

   ***  level   1  model parameters  ***

    level=   1.00                is=   1.00u amps         jsw=   0.    amps   
        n=   3.00               nbv=   3.00                ik=   0.    amp    
     area=   1.00                pj=   0.                 ikr=   0.    amp    
    expli=   0.    amps      explir=   0.    amps        jtun=   0.    amps   
   jtunsw=   0.    amps        ntun=  30.00         
  
 ********************************************************
 *** common model parameters model name:   0:diode11_****
 ********************************************************

     names  values   units     names  values   units     names  values   units
     -----  ------   -----     -----  ------   -----     -----  ------   -----

   1*** dc breakdown parameters ***
       vb=   0.    volts        ibv=   1.00m amps   

   2*** parasitic resistance parameters ***
       rs=   0.    ohms   

   3*** capacitance parameters ***
       fc= 500.00m              fcs= 500.00m                m= 500.00m        
     mjsw= 330.00m               pb= 800.00m volts        php= 800.00m volts  
       tt=   0.    secs         cjo=   0.    f/area       cjp=   0.    f/pj   

   4*** temperature effect parameters ***
     tlev=   0.               tlevc=   0.                 tcv=   0.    v/deg k
      trs=   0.    /deg         cta=   0.    /deg         ctp=   0.    /deg   
      xti=   3.00            xtitun=   3.00               keg=   1.00         
       eg=   1.11  ev          gap1= 702.00u  ev/deg     gap2=   1.11k  deg   
     ttt1=   0.    /deg        ttt2=   0.    /deg2        tm1=   0.    /deg   
      tm2=   0.    /deg2        tpb=   0.    v/deg k     tphp=   0.    v/deg k
     tref=  25.00   deg c 

   5*** noise parameters ***
       kf=   0.                  af=   1.00         

   ***  level   1  model parameters  ***

    level=   1.00                is=   1.00u amps         jsw=   0.    amps   
        n=  12.00               nbv=  12.00                ik=   0.    amp    
     area=   1.00                pj=   0.                 ikr=   0.    amp    
    expli=   0.    amps      explir=   0.    amps        jtun=   0.    amps   
   jtunsw=   0.    amps        ntun=  30.00         
  
 ********************************************************
 *** common model parameters model name:   0:diode11_****
 ********************************************************

     names  values   units     names  values   units     names  values   units
     -----  ------   -----     -----  ------   -----     -----  ------   -----

   1*** dc breakdown parameters ***
       vb=   0.    volts        ibv=   1.00m amps   

   2*** parasitic resistance parameters ***
       rs=   0.    ohms   

   3*** capacitance parameters ***
       fc= 500.00m              fcs= 500.00m                m= 500.00m        
     mjsw= 330.00m               pb= 800.00m volts        php= 800.00m volts  
       tt=   0.    secs         cjo=   0.    f/area       cjp=   0.    f/pj   

   4*** temperature effect parameters ***
     tlev=   0.               tlevc=   0.                 tcv=   0.    v/deg k
      trs=   0.    /deg         cta=   0.    /deg         ctp=   0.    /deg   
      xti=   3.00            xtitun=   3.00               keg=   1.00         
       eg=   1.11  ev          gap1= 702.00u  ev/deg     gap2=   1.11k  deg   
     ttt1=   0.    /deg        ttt2=   0.    /deg2        tm1=   0.    /deg   
      tm2=   0.    /deg2        tpb=   0.    v/deg k     tphp=   0.    v/deg k
     tref=  25.00   deg c 

   5*** noise parameters ***
       kf=   0.                  af=   1.00         

   ***  level   1  model parameters  ***

    level=   1.00                is=   1.00u amps         jsw=   0.    amps   
        n=   4.50               nbv=   4.50                ik=   0.    amp    
     area=   1.00                pj=   0.                 ikr=   0.    amp    
    expli=   0.    amps      explir=   0.    amps        jtun=   0.    amps   
   jtunsw=   0.    amps        ntun=  30.00         
  
 ********************************************************
 *** common model parameters model name:   0:diode_bp****
 ********************************************************

     names  values   units     names  values   units     names  values   units
     -----  ------   -----     -----  ------   -----     -----  ------   -----

   1*** dc breakdown parameters ***
       vb=   0.    volts        ibv=   1.00m amps   

   2*** parasitic resistance parameters ***
       rs=   0.    ohms   

   3*** capacitance parameters ***
       fc= 500.00m              fcs= 500.00m                m= 500.00m        
     mjsw= 330.00m               pb= 800.00m volts        php= 800.00m volts  
       tt=   0.    secs         cjo=   0.    f/area       cjp=   0.    f/pj   

   4*** temperature effect parameters ***
     tlev=   0.               tlevc=   0.                 tcv=   0.    v/deg k
      trs=   0.    /deg         cta=   0.    /deg         ctp=   0.    /deg   
      xti=   3.00            xtitun=   3.00               keg=   1.00         
       eg=   1.11  ev          gap1= 702.00u  ev/deg     gap2=   1.11k  deg   
     ttt1=   0.    /deg        ttt2=   0.    /deg2        tm1=   0.    /deg   
      tm2=   0.    /deg2        tpb=   0.    v/deg k     tphp=   0.    v/deg k
     tref=  25.00   deg c 

   5*** noise parameters ***
       kf=   0.                  af=   1.00         

   ***  level   1  model parameters  ***

    level=   1.00                is=  10.00u amps         jsw=   0.    amps   
        n=   1.00               nbv=   1.00                ik=   0.    amp    
     area=   1.00                pj=   0.                 ikr=   0.    amp    
    expli=   0.    amps      explir=   0.    amps        jtun=   0.    amps   
   jtunsw=   0.    amps        ntun=  30.00         
  
 ********************************************************
 *** common model parameters model name:   0:diode21_****
 ********************************************************

     names  values   units     names  values   units     names  values   units
     -----  ------   -----     -----  ------   -----     -----  ------   -----

   1*** dc breakdown parameters ***
       vb=   0.    volts        ibv=   1.00m amps   

   2*** parasitic resistance parameters ***
       rs=   0.    ohms   

   3*** capacitance parameters ***
       fc= 500.00m              fcs= 500.00m                m= 500.00m        
     mjsw= 330.00m               pb= 800.00m volts        php= 800.00m volts  
       tt=   0.    secs         cjo=   0.    f/area       cjp=   0.    f/pj   

   4*** temperature effect parameters ***
     tlev=   0.               tlevc=   0.                 tcv=   0.    v/deg k
      trs=   0.    /deg         cta=   0.    /deg         ctp=   0.    /deg   
      xti=   3.00            xtitun=   3.00               keg=   1.00         
       eg=   1.11  ev          gap1= 702.00u  ev/deg     gap2=   1.11k  deg   
     ttt1=   0.    /deg        ttt2=   0.    /deg2        tm1=   0.    /deg   
      tm2=   0.    /deg2        tpb=   0.    v/deg k     tphp=   0.    v/deg k
     tref=  25.00   deg c 

   5*** noise parameters ***
       kf=   0.                  af=   1.00         

   ***  level   1  model parameters  ***

    level=   1.00                is=   1.00u amps         jsw=   0.    amps   
        n=   9.00               nbv=   9.00                ik=   0.    amp    
     area=   1.00                pj=   0.                 ikr=   0.    amp    
    expli=   0.    amps      explir=   0.    amps        jtun=   0.    amps   
   jtunsw=   0.    amps        ntun=  30.00         
  
 ********************************************************
 *** common model parameters model name:   0:diode21_****
 ********************************************************

     names  values   units     names  values   units     names  values   units
     -----  ------   -----     -----  ------   -----     -----  ------   -----

   1*** dc breakdown parameters ***
       vb=   0.    volts        ibv=   1.00m amps   

   2*** parasitic resistance parameters ***
       rs=   0.    ohms   

   3*** capacitance parameters ***
       fc= 500.00m              fcs= 500.00m                m= 500.00m        
     mjsw= 330.00m               pb= 800.00m volts        php= 800.00m volts  
       tt=   0.    secs         cjo=   0.    f/area       cjp=   0.    f/pj   

   4*** temperature effect parameters ***
     tlev=   0.               tlevc=   0.                 tcv=   0.    v/deg k
      trs=   0.    /deg         cta=   0.    /deg         ctp=   0.    /deg   
      xti=   3.00            xtitun=   3.00               keg=   1.00         
       eg=   1.11  ev          gap1= 702.00u  ev/deg     gap2=   1.11k  deg   
     ttt1=   0.    /deg        ttt2=   0.    /deg2        tm1=   0.    /deg   
      tm2=   0.    /deg2        tpb=   0.    v/deg k     tphp=   0.    v/deg k
     tref=  25.00   deg c 

   5*** noise parameters ***
       kf=   0.                  af=   1.00         

   ***  level   1  model parameters  ***

    level=   1.00                is=   1.00u amps         jsw=   0.    amps   
        n=   7.50               nbv=   7.50                ik=   0.    amp    
     area=   1.00                pj=   0.                 ikr=   0.    amp    
    expli=   0.    amps      explir=   0.    amps        jtun=   0.    amps   
   jtunsw=   0.    amps        ntun=  30.00         
  
 ********************************************************
 *** common model parameters model name:   0:diode21_****
 ********************************************************

     names  values   units     names  values   units     names  values   units
     -----  ------   -----     -----  ------   -----     -----  ------   -----

   1*** dc breakdown parameters ***
       vb=   0.    volts        ibv=   1.00m amps   

   2*** parasitic resistance parameters ***
       rs=   0.    ohms   

   3*** capacitance parameters ***
       fc= 500.00m              fcs= 500.00m                m= 500.00m        
     mjsw= 330.00m               pb= 800.00m volts        php= 800.00m volts  
       tt=   0.    secs         cjo=   0.    f/area       cjp=   0.    f/pj   

   4*** temperature effect parameters ***
     tlev=   0.               tlevc=   0.                 tcv=   0.    v/deg k
      trs=   0.    /deg         cta=   0.    /deg         ctp=   0.    /deg   
      xti=   3.00            xtitun=   3.00               keg=   1.00         
       eg=   1.11  ev          gap1= 702.00u  ev/deg     gap2=   1.11k  deg   
     ttt1=   0.    /deg        ttt2=   0.    /deg2        tm1=   0.    /deg   
      tm2=   0.    /deg2        tpb=   0.    v/deg k     tphp=   0.    v/deg k
     tref=  25.00   deg c 

   5*** noise parameters ***
       kf=   0.                  af=   1.00         

   ***  level   1  model parameters  ***

    level=   1.00                is=   1.00u amps         jsw=   0.    amps   
        n=   3.00               nbv=   3.00                ik=   0.    amp    
     area=   1.00                pj=   0.                 ikr=   0.    amp    
    expli=   0.    amps      explir=   0.    amps        jtun=   0.    amps   
   jtunsw=   0.    amps        ntun=  30.00         
  
 ********************************************************
 *** common model parameters model name:   0:diode_bp****
 ********************************************************

     names  values   units     names  values   units     names  values   units
     -----  ------   -----     -----  ------   -----     -----  ------   -----

   1*** dc breakdown parameters ***
       vb=   0.    volts        ibv=   1.00m amps   

   2*** parasitic resistance parameters ***
       rs=   0.    ohms   

   3*** capacitance parameters ***
       fc= 500.00m              fcs= 500.00m                m= 500.00m        
     mjsw= 330.00m               pb= 800.00m volts        php= 800.00m volts  
       tt=   0.    secs         cjo=   0.    f/area       cjp=   0.    f/pj   

   4*** temperature effect parameters ***
     tlev=   0.               tlevc=   0.                 tcv=   0.    v/deg k
      trs=   0.    /deg         cta=   0.    /deg         ctp=   0.    /deg   
      xti=   3.00            xtitun=   3.00               keg=   1.00         
       eg=   1.11  ev          gap1= 702.00u  ev/deg     gap2=   1.11k  deg   
     ttt1=   0.    /deg        ttt2=   0.    /deg2        tm1=   0.    /deg   
      tm2=   0.    /deg2        tpb=   0.    v/deg k     tphp=   0.    v/deg k
     tref=  25.00   deg c 

   5*** noise parameters ***
       kf=   0.                  af=   1.00         

   ***  level   1  model parameters  ***

    level=   1.00                is=  10.00u amps         jsw=   0.    amps   
        n=   1.00               nbv=   1.00                ik=   0.    amp    
     area=   1.00                pj=   0.                 ikr=   0.    amp    
    expli=   0.    amps      explir=   0.    amps        jtun=   0.    amps   
   jtunsw=   0.    amps        ntun=  30.00         
  
 ********************************************************
 *** common model parameters model name:   0:diode213****
 ********************************************************

     names  values   units     names  values   units     names  values   units
     -----  ------   -----     -----  ------   -----     -----  ------   -----

   1*** dc breakdown parameters ***
       vb=   0.    volts        ibv=   1.00m amps   

   2*** parasitic resistance parameters ***
       rs=   0.    ohms   

   3*** capacitance parameters ***
       fc= 500.00m              fcs= 500.00m                m= 500.00m        
     mjsw= 330.00m               pb= 800.00m volts        php= 800.00m volts  
       tt=   0.    secs         cjo=   0.    f/area       cjp=   0.    f/pj   

   4*** temperature effect parameters ***
     tlev=   0.               tlevc=   0.                 tcv=   0.    v/deg k
      trs=   0.    /deg         cta=   0.    /deg         ctp=   0.    /deg   
      xti=   3.00            xtitun=   3.00               keg=   1.00         
       eg=   1.11  ev          gap1= 702.00u  ev/deg     gap2=   1.11k  deg   
     ttt1=   0.    /deg        ttt2=   0.    /deg2        tm1=   0.    /deg   
      tm2=   0.    /deg2        tpb=   0.    v/deg k     tphp=   0.    v/deg k
     tref=  25.00   deg c 

   5*** noise parameters ***
       kf=   0.                  af=   1.00         

   ***  level   1  model parameters  ***

    level=   1.00                is=   1.00u amps         jsw=   0.    amps   
        n=  12.00               nbv=  12.00                ik=   0.    amp    
     area=   1.00                pj=   0.                 ikr=   0.    amp    
    expli=   0.    amps      explir=   0.    amps        jtun=   0.    amps   
   jtunsw=   0.    amps        ntun=  30.00         
  
 ********************************************************
 *** common model parameters model name:   0:diode31_****
 ********************************************************

     names  values   units     names  values   units     names  values   units
     -----  ------   -----     -----  ------   -----     -----  ------   -----

   1*** dc breakdown parameters ***
       vb=   0.    volts        ibv=   1.00m amps   

   2*** parasitic resistance parameters ***
       rs=   0.    ohms   

   3*** capacitance parameters ***
       fc= 500.00m              fcs= 500.00m                m= 500.00m        
     mjsw= 330.00m               pb= 800.00m volts        php= 800.00m volts  
       tt=   0.    secs         cjo=   0.    f/area       cjp=   0.    f/pj   

   4*** temperature effect parameters ***
     tlev=   0.               tlevc=   0.                 tcv=   0.    v/deg k
      trs=   0.    /deg         cta=   0.    /deg         ctp=   0.    /deg   
      xti=   3.00            xtitun=   3.00               keg=   1.00         
       eg=   1.11  ev          gap1= 702.00u  ev/deg     gap2=   1.11k  deg   
     ttt1=   0.    /deg        ttt2=   0.    /deg2        tm1=   0.    /deg   
      tm2=   0.    /deg2        tpb=   0.    v/deg k     tphp=   0.    v/deg k
     tref=  25.00   deg c 

   5*** noise parameters ***
       kf=   0.                  af=   1.00         

   ***  level   1  model parameters  ***

    level=   1.00                is=   1.00u amps         jsw=   0.    amps   
        n=   9.00               nbv=   9.00                ik=   0.    amp    
     area=   1.00                pj=   0.                 ikr=   0.    amp    
    expli=   0.    amps      explir=   0.    amps        jtun=   0.    amps   
   jtunsw=   0.    amps        ntun=  30.00         
  
 ********************************************************
 *** common model parameters model name:   0:diode_bp****
 ********************************************************

     names  values   units     names  values   units     names  values   units
     -----  ------   -----     -----  ------   -----     -----  ------   -----

   1*** dc breakdown parameters ***
       vb=   0.    volts        ibv=   1.00m amps   

   2*** parasitic resistance parameters ***
       rs=   0.    ohms   

   3*** capacitance parameters ***
       fc= 500.00m              fcs= 500.00m                m= 500.00m        
     mjsw= 330.00m               pb= 800.00m volts        php= 800.00m volts  
       tt=   0.    secs         cjo=   0.    f/area       cjp=   0.    f/pj   

   4*** temperature effect parameters ***
     tlev=   0.               tlevc=   0.                 tcv=   0.    v/deg k
      trs=   0.    /deg         cta=   0.    /deg         ctp=   0.    /deg   
      xti=   3.00            xtitun=   3.00               keg=   1.00         
       eg=   1.11  ev          gap1= 702.00u  ev/deg     gap2=   1.11k  deg   
     ttt1=   0.    /deg        ttt2=   0.    /deg2        tm1=   0.    /deg   
      tm2=   0.    /deg2        tpb=   0.    v/deg k     tphp=   0.    v/deg k
     tref=  25.00   deg c 

   5*** noise parameters ***
       kf=   0.                  af=   1.00         

   ***  level   1  model parameters  ***

    level=   1.00                is=  10.00u amps         jsw=   0.    amps   
        n=   1.00               nbv=   1.00                ik=   0.    amp    
     area=   1.00                pj=   0.                 ikr=   0.    amp    
    expli=   0.    amps      explir=   0.    amps        jtun=   0.    amps   
   jtunsw=   0.    amps        ntun=  30.00         
  
 ********************************************************
 *** common model parameters model name:   0:diode12_****
 ********************************************************

     names  values   units     names  values   units     names  values   units
     -----  ------   -----     -----  ------   -----     -----  ------   -----

   1*** dc breakdown parameters ***
       vb=   0.    volts        ibv=   1.00m amps   

   2*** parasitic resistance parameters ***
       rs=   0.    ohms   

   3*** capacitance parameters ***
       fc= 500.00m              fcs= 500.00m                m= 500.00m        
     mjsw= 330.00m               pb= 800.00m volts        php= 800.00m volts  
       tt=   0.    secs         cjo=   0.    f/area       cjp=   0.    f/pj   

   4*** temperature effect parameters ***
     tlev=   0.               tlevc=   0.                 tcv=   0.    v/deg k
      trs=   0.    /deg         cta=   0.    /deg         ctp=   0.    /deg   
      xti=   3.00            xtitun=   3.00               keg=   1.00         
       eg=   1.11  ev          gap1= 702.00u  ev/deg     gap2=   1.11k  deg   
     ttt1=   0.    /deg        ttt2=   0.    /deg2        tm1=   0.    /deg   
      tm2=   0.    /deg2        tpb=   0.    v/deg k     tphp=   0.    v/deg k
     tref=  25.00   deg c 

   5*** noise parameters ***
       kf=   0.                  af=   1.00         

   ***  level   1  model parameters  ***

    level=   1.00                is=   1.00u amps         jsw=   0.    amps   
        n=   3.00               nbv=   3.00                ik=   0.    amp    
     area=   1.00                pj=   0.                 ikr=   0.    amp    
    expli=   0.    amps      explir=   0.    amps        jtun=   0.    amps   
   jtunsw=   0.    amps        ntun=  30.00         
  
 ********************************************************
 *** common model parameters model name:   0:diode12_****
 ********************************************************

     names  values   units     names  values   units     names  values   units
     -----  ------   -----     -----  ------   -----     -----  ------   -----

   1*** dc breakdown parameters ***
       vb=   0.    volts        ibv=   1.00m amps   

   2*** parasitic resistance parameters ***
       rs=   0.    ohms   

   3*** capacitance parameters ***
       fc= 500.00m              fcs= 500.00m                m= 500.00m        
     mjsw= 330.00m               pb= 800.00m volts        php= 800.00m volts  
       tt=   0.    secs         cjo=   0.    f/area       cjp=   0.    f/pj   

   4*** temperature effect parameters ***
     tlev=   0.               tlevc=   0.                 tcv=   0.    v/deg k
      trs=   0.    /deg         cta=   0.    /deg         ctp=   0.    /deg   
      xti=   3.00            xtitun=   3.00               keg=   1.00         
       eg=   1.11  ev          gap1= 702.00u  ev/deg     gap2=   1.11k  deg   
     ttt1=   0.    /deg        ttt2=   0.    /deg2        tm1=   0.    /deg   
      tm2=   0.    /deg2        tpb=   0.    v/deg k     tphp=   0.    v/deg k
     tref=  25.00   deg c 

   5*** noise parameters ***
       kf=   0.                  af=   1.00         

   ***  level   1  model parameters  ***

    level=   1.00                is=   1.00u amps         jsw=   0.    amps   
        n=  12.00               nbv=  12.00                ik=   0.    amp    
     area=   1.00                pj=   0.                 ikr=   0.    amp    
    expli=   0.    amps      explir=   0.    amps        jtun=   0.    amps   
   jtunsw=   0.    amps        ntun=  30.00         
  
 ********************************************************
 *** common model parameters model name:   0:diode12_****
 ********************************************************

     names  values   units     names  values   units     names  values   units
     -----  ------   -----     -----  ------   -----     -----  ------   -----

   1*** dc breakdown parameters ***
       vb=   0.    volts        ibv=   1.00m amps   

   2*** parasitic resistance parameters ***
       rs=   0.    ohms   

   3*** capacitance parameters ***
       fc= 500.00m              fcs= 500.00m                m= 500.00m        
     mjsw= 330.00m               pb= 800.00m volts        php= 800.00m volts  
       tt=   0.    secs         cjo=   0.    f/area       cjp=   0.    f/pj   

   4*** temperature effect parameters ***
     tlev=   0.               tlevc=   0.                 tcv=   0.    v/deg k
      trs=   0.    /deg         cta=   0.    /deg         ctp=   0.    /deg   
      xti=   3.00            xtitun=   3.00               keg=   1.00         
       eg=   1.11  ev          gap1= 702.00u  ev/deg     gap2=   1.11k  deg   
     ttt1=   0.    /deg        ttt2=   0.    /deg2        tm1=   0.    /deg   
      tm2=   0.    /deg2        tpb=   0.    v/deg k     tphp=   0.    v/deg k
     tref=  25.00   deg c 

   5*** noise parameters ***
       kf=   0.                  af=   1.00         

   ***  level   1  model parameters  ***

    level=   1.00                is=   1.00u amps         jsw=   0.    amps   
        n=   4.50               nbv=   4.50                ik=   0.    amp    
     area=   1.00                pj=   0.                 ikr=   0.    amp    
    expli=   0.    amps      explir=   0.    amps        jtun=   0.    amps   
   jtunsw=   0.    amps        ntun=  30.00         
  
 ********************************************************
 *** common model parameters model name:   0:diode_bp****
 ********************************************************

     names  values   units     names  values   units     names  values   units
     -----  ------   -----     -----  ------   -----     -----  ------   -----

   1*** dc breakdown parameters ***
       vb=   0.    volts        ibv=   1.00m amps   

   2*** parasitic resistance parameters ***
       rs=   0.    ohms   

   3*** capacitance parameters ***
       fc= 500.00m              fcs= 500.00m                m= 500.00m        
     mjsw= 330.00m               pb= 800.00m volts        php= 800.00m volts  
       tt=   0.    secs         cjo=   0.    f/area       cjp=   0.    f/pj   

   4*** temperature effect parameters ***
     tlev=   0.               tlevc=   0.                 tcv=   0.    v/deg k
      trs=   0.    /deg         cta=   0.    /deg         ctp=   0.    /deg   
      xti=   3.00            xtitun=   3.00               keg=   1.00         
       eg=   1.11  ev          gap1= 702.00u  ev/deg     gap2=   1.11k  deg   
     ttt1=   0.    /deg        ttt2=   0.    /deg2        tm1=   0.    /deg   
      tm2=   0.    /deg2        tpb=   0.    v/deg k     tphp=   0.    v/deg k
     tref=  25.00   deg c 

   5*** noise parameters ***
       kf=   0.                  af=   1.00         

   ***  level   1  model parameters  ***

    level=   1.00                is=  10.00u amps         jsw=   0.    amps   
        n=   1.00               nbv=   1.00                ik=   0.    amp    
     area=   1.00                pj=   0.                 ikr=   0.    amp    
    expli=   0.    amps      explir=   0.    amps        jtun=   0.    amps   
   jtunsw=   0.    amps        ntun=  30.00         
  
 ********************************************************
 *** common model parameters model name:   0:diode22_****
 ********************************************************

     names  values   units     names  values   units     names  values   units
     -----  ------   -----     -----  ------   -----     -----  ------   -----

   1*** dc breakdown parameters ***
       vb=   0.    volts        ibv=   1.00m amps   

   2*** parasitic resistance parameters ***
       rs=   0.    ohms   

   3*** capacitance parameters ***
       fc= 500.00m              fcs= 500.00m                m= 500.00m        
     mjsw= 330.00m               pb= 800.00m volts        php= 800.00m volts  
       tt=   0.    secs         cjo=   0.    f/area       cjp=   0.    f/pj   

   4*** temperature effect parameters ***
     tlev=   0.               tlevc=   0.                 tcv=   0.    v/deg k
      trs=   0.    /deg         cta=   0.    /deg         ctp=   0.    /deg   
      xti=   3.00            xtitun=   3.00               keg=   1.00         
       eg=   1.11  ev          gap1= 702.00u  ev/deg     gap2=   1.11k  deg   
     ttt1=   0.    /deg        ttt2=   0.    /deg2        tm1=   0.    /deg   
      tm2=   0.    /deg2        tpb=   0.    v/deg k     tphp=   0.    v/deg k
     tref=  25.00   deg c 

   5*** noise parameters ***
       kf=   0.                  af=   1.00         

   ***  level   1  model parameters  ***

    level=   1.00                is=   1.00u amps         jsw=   0.    amps   
        n=   9.00               nbv=   9.00                ik=   0.    amp    
     area=   1.00                pj=   0.                 ikr=   0.    amp    
    expli=   0.    amps      explir=   0.    amps        jtun=   0.    amps   
   jtunsw=   0.    amps        ntun=  30.00         
  
 ********************************************************
 *** common model parameters model name:   0:diode22_****
 ********************************************************

     names  values   units     names  values   units     names  values   units
     -----  ------   -----     -----  ------   -----     -----  ------   -----

   1*** dc breakdown parameters ***
       vb=   0.    volts        ibv=   1.00m amps   

   2*** parasitic resistance parameters ***
       rs=   0.    ohms   

   3*** capacitance parameters ***
       fc= 500.00m              fcs= 500.00m                m= 500.00m        
     mjsw= 330.00m               pb= 800.00m volts        php= 800.00m volts  
       tt=   0.    secs         cjo=   0.    f/area       cjp=   0.    f/pj   

   4*** temperature effect parameters ***
     tlev=   0.               tlevc=   0.                 tcv=   0.    v/deg k
      trs=   0.    /deg         cta=   0.    /deg         ctp=   0.    /deg   
      xti=   3.00            xtitun=   3.00               keg=   1.00         
       eg=   1.11  ev          gap1= 702.00u  ev/deg     gap2=   1.11k  deg   
     ttt1=   0.    /deg        ttt2=   0.    /deg2        tm1=   0.    /deg   
      tm2=   0.    /deg2        tpb=   0.    v/deg k     tphp=   0.    v/deg k
     tref=  25.00   deg c 

   5*** noise parameters ***
       kf=   0.                  af=   1.00         

   ***  level   1  model parameters  ***

    level=   1.00                is=   1.00u amps         jsw=   0.    amps   
        n=   7.50               nbv=   7.50                ik=   0.    amp    
     area=   1.00                pj=   0.                 ikr=   0.    amp    
    expli=   0.    amps      explir=   0.    amps        jtun=   0.    amps   
   jtunsw=   0.    amps        ntun=  30.00         
  
 ********************************************************
 *** common model parameters model name:   0:diode22_****
 ********************************************************

     names  values   units     names  values   units     names  values   units
     -----  ------   -----     -----  ------   -----     -----  ------   -----

   1*** dc breakdown parameters ***
       vb=   0.    volts        ibv=   1.00m amps   

   2*** parasitic resistance parameters ***
       rs=   0.    ohms   

   3*** capacitance parameters ***
       fc= 500.00m              fcs= 500.00m                m= 500.00m        
     mjsw= 330.00m               pb= 800.00m volts        php= 800.00m volts  
       tt=   0.    secs         cjo=   0.    f/area       cjp=   0.    f/pj   

   4*** temperature effect parameters ***
     tlev=   0.               tlevc=   0.                 tcv=   0.    v/deg k
      trs=   0.    /deg         cta=   0.    /deg         ctp=   0.    /deg   
      xti=   3.00            xtitun=   3.00               keg=   1.00         
       eg=   1.11  ev          gap1= 702.00u  ev/deg     gap2=   1.11k  deg   
     ttt1=   0.    /deg        ttt2=   0.    /deg2        tm1=   0.    /deg   
      tm2=   0.    /deg2        tpb=   0.    v/deg k     tphp=   0.    v/deg k
     tref=  25.00   deg c 

   5*** noise parameters ***
       kf=   0.                  af=   1.00         

   ***  level   1  model parameters  ***

    level=   1.00                is=   1.00u amps         jsw=   0.    amps   
        n=   3.00               nbv=   3.00                ik=   0.    amp    
     area=   1.00                pj=   0.                 ikr=   0.    amp    
    expli=   0.    amps      explir=   0.    amps        jtun=   0.    amps   
   jtunsw=   0.    amps        ntun=  30.00         
  
 ********************************************************
 *** common model parameters model name:   0:diode_bp****
 ********************************************************

     names  values   units     names  values   units     names  values   units
     -----  ------   -----     -----  ------   -----     -----  ------   -----

   1*** dc breakdown parameters ***
       vb=   0.    volts        ibv=   1.00m amps   

   2*** parasitic resistance parameters ***
       rs=   0.    ohms   

   3*** capacitance parameters ***
       fc= 500.00m              fcs= 500.00m                m= 500.00m        
     mjsw= 330.00m               pb= 800.00m volts        php= 800.00m volts  
       tt=   0.    secs         cjo=   0.    f/area       cjp=   0.    f/pj   

   4*** temperature effect parameters ***
     tlev=   0.               tlevc=   0.                 tcv=   0.    v/deg k
      trs=   0.    /deg         cta=   0.    /deg         ctp=   0.    /deg   
      xti=   3.00            xtitun=   3.00               keg=   1.00         
       eg=   1.11  ev          gap1= 702.00u  ev/deg     gap2=   1.11k  deg   
     ttt1=   0.    /deg        ttt2=   0.    /deg2        tm1=   0.    /deg   
      tm2=   0.    /deg2        tpb=   0.    v/deg k     tphp=   0.    v/deg k
     tref=  25.00   deg c 

   5*** noise parameters ***
       kf=   0.                  af=   1.00         

   ***  level   1  model parameters  ***

    level=   1.00                is=  10.00u amps         jsw=   0.    amps   
        n=   1.00               nbv=   1.00                ik=   0.    amp    
     area=   1.00                pj=   0.                 ikr=   0.    amp    
    expli=   0.    amps      explir=   0.    amps        jtun=   0.    amps   
   jtunsw=   0.    amps        ntun=  30.00         
  
 ********************************************************
 *** common model parameters model name:   0:diode223****
 ********************************************************

     names  values   units     names  values   units     names  values   units
     -----  ------   -----     -----  ------   -----     -----  ------   -----

   1*** dc breakdown parameters ***
       vb=   0.    volts        ibv=   1.00m amps   

   2*** parasitic resistance parameters ***
       rs=   0.    ohms   

   3*** capacitance parameters ***
       fc= 500.00m              fcs= 500.00m                m= 500.00m        
     mjsw= 330.00m               pb= 800.00m volts        php= 800.00m volts  
       tt=   0.    secs         cjo=   0.    f/area       cjp=   0.    f/pj   

   4*** temperature effect parameters ***
     tlev=   0.               tlevc=   0.                 tcv=   0.    v/deg k
      trs=   0.    /deg         cta=   0.    /deg         ctp=   0.    /deg   
      xti=   3.00            xtitun=   3.00               keg=   1.00         
       eg=   1.11  ev          gap1= 702.00u  ev/deg     gap2=   1.11k  deg   
     ttt1=   0.    /deg        ttt2=   0.    /deg2        tm1=   0.    /deg   
      tm2=   0.    /deg2        tpb=   0.    v/deg k     tphp=   0.    v/deg k
     tref=  25.00   deg c 

   5*** noise parameters ***
       kf=   0.                  af=   1.00         

   ***  level   1  model parameters  ***

    level=   1.00                is=   1.00u amps         jsw=   0.    amps   
        n=  12.00               nbv=  12.00                ik=   0.    amp    
     area=   1.00                pj=   0.                 ikr=   0.    amp    
    expli=   0.    amps      explir=   0.    amps        jtun=   0.    amps   
   jtunsw=   0.    amps        ntun=  30.00         
  
 ********************************************************
 *** common model parameters model name:   0:diode32_****
 ********************************************************

     names  values   units     names  values   units     names  values   units
     -----  ------   -----     -----  ------   -----     -----  ------   -----

   1*** dc breakdown parameters ***
       vb=   0.    volts        ibv=   1.00m amps   

   2*** parasitic resistance parameters ***
       rs=   0.    ohms   

   3*** capacitance parameters ***
       fc= 500.00m              fcs= 500.00m                m= 500.00m        
     mjsw= 330.00m               pb= 800.00m volts        php= 800.00m volts  
       tt=   0.    secs         cjo=   0.    f/area       cjp=   0.    f/pj   

   4*** temperature effect parameters ***
     tlev=   0.               tlevc=   0.                 tcv=   0.    v/deg k
      trs=   0.    /deg         cta=   0.    /deg         ctp=   0.    /deg   
      xti=   3.00            xtitun=   3.00               keg=   1.00         
       eg=   1.11  ev          gap1= 702.00u  ev/deg     gap2=   1.11k  deg   
     ttt1=   0.    /deg        ttt2=   0.    /deg2        tm1=   0.    /deg   
      tm2=   0.    /deg2        tpb=   0.    v/deg k     tphp=   0.    v/deg k
     tref=  25.00   deg c 

   5*** noise parameters ***
       kf=   0.                  af=   1.00         

   ***  level   1  model parameters  ***

    level=   1.00                is=   1.00u amps         jsw=   0.    amps   
        n=   9.00               nbv=   9.00                ik=   0.    amp    
     area=   1.00                pj=   0.                 ikr=   0.    amp    
    expli=   0.    amps      explir=   0.    amps        jtun=   0.    amps   
   jtunsw=   0.    amps        ntun=  30.00         
  
 ********************************************************
 *** common model parameters model name:   0:diode_bp****
 ********************************************************

     names  values   units     names  values   units     names  values   units
     -----  ------   -----     -----  ------   -----     -----  ------   -----

   1*** dc breakdown parameters ***
       vb=   0.    volts        ibv=   1.00m amps   

   2*** parasitic resistance parameters ***
       rs=   0.    ohms   

   3*** capacitance parameters ***
       fc= 500.00m              fcs= 500.00m                m= 500.00m        
     mjsw= 330.00m               pb= 800.00m volts        php= 800.00m volts  
       tt=   0.    secs         cjo=   0.    f/area       cjp=   0.    f/pj   

   4*** temperature effect parameters ***
     tlev=   0.               tlevc=   0.                 tcv=   0.    v/deg k
      trs=   0.    /deg         cta=   0.    /deg         ctp=   0.    /deg   
      xti=   3.00            xtitun=   3.00               keg=   1.00         
       eg=   1.11  ev          gap1= 702.00u  ev/deg     gap2=   1.11k  deg   
     ttt1=   0.    /deg        ttt2=   0.    /deg2        tm1=   0.    /deg   
      tm2=   0.    /deg2        tpb=   0.    v/deg k     tphp=   0.    v/deg k
     tref=  25.00   deg c 

   5*** noise parameters ***
       kf=   0.                  af=   1.00         

   ***  level   1  model parameters  ***

    level=   1.00                is=  10.00u amps         jsw=   0.    amps   
        n=   1.00               nbv=   1.00                ik=   0.    amp    
     area=   1.00                pj=   0.                 ikr=   0.    amp    
    expli=   0.    amps      explir=   0.    amps        jtun=   0.    amps   
   jtunsw=   0.    amps        ntun=  30.00         
  
  **warning** (C:\Users\Administrator\Desktop\MultiLevel\cwModel.sp:6) r111_1defined in subckt 0                resistance limited to   1.000E-05
 
      
 *****************************************************************
 ******  option summary
 ******
 runlvl  = 3         bypass  = 2         
 ******  
 ** 40 cascaded, 2 paralleled cells

  ******  dc transfer curves tnom=  25.000 temp=  25.000 *****
x

        volt    voltage      current    
                     1           vds    
    0.            0.           5.0006   
    5.00000m      5.0000m      5.0006   
   10.00000m     10.0000m      5.0006   
   15.00000m     15.0000m      5.0006   
   20.00000m     20.0000m      5.0006   
   25.00000m     25.0000m      5.0006   
   30.00000m     30.0000m      5.0006   
   35.00000m     35.0000m      5.0006   
   40.00000m     40.0000m      5.0005   
   45.00000m     45.0000m      5.0005   
   50.00000m     50.0000m      5.0005   
   55.00000m     55.0000m      5.0005   
   60.00000m     60.0000m      5.0005   
   65.00000m     65.0000m      5.0005   
   70.00000m     70.0000m      5.0005   
   75.00000m     75.0000m      5.0005   
   80.00000m     80.0000m      5.0005   
   85.00000m     85.0000m      5.0005   
   90.00000m     90.0000m      5.0005   
   95.00000m     95.0000m      5.0005   
  100.00000m    100.0000m      5.0005   
  105.00000m    105.0000m      5.0005   
  110.00000m    110.0000m      5.0005   
  115.00000m    115.0000m      5.0005   
  120.00000m    120.0000m      5.0005   
  125.00000m    125.0000m      5.0005   
  130.00000m    130.0000m      5.0005   
  135.00000m    135.0000m      5.0005   
  140.00000m    140.0000m      5.0005   
  145.00000m    145.0000m      5.0005   
  150.00000m    150.0000m      5.0005   
  155.00000m    155.0000m      5.0005   
  160.00000m    160.0000m      5.0005   
  165.00000m    165.0000m      5.0005   
  170.00000m    170.0000m      5.0005   
  175.00000m    175.0000m      5.0005   
  180.00000m    180.0000m      5.0005   
  185.00000m    185.0000m      5.0005   
  190.00000m    190.0000m      5.0005   
  195.00000m    195.0000m      5.0005   
  200.00000m    200.0000m      5.0005   
  205.00000m    205.0000m      5.0005   
  210.00000m    210.0000m      5.0005   
  215.00000m    215.0000m      5.0005   
  220.00000m    220.0000m      5.0005   
  225.00000m    225.0000m      5.0005   
  230.00000m    230.0000m      5.0005   
  235.00000m    235.0000m      5.0005   
  240.00000m    240.0000m      5.0005   
  245.00000m    245.0000m      5.0005   
  250.00000m    250.0000m      5.0005   
  255.00000m    255.0000m      5.0005   
  260.00000m    260.0000m      5.0005   
  265.00000m    265.0000m      5.0005   
  270.00000m    270.0000m      5.0005   
  275.00000m    275.0000m      5.0005   
  280.00000m    280.0000m      5.0005   
  285.00000m    285.0000m      5.0005   
  290.00000m    290.0000m      5.0005   
  295.00000m    295.0000m      5.0005   
  300.00000m    300.0000m      5.0005   
  305.00000m    305.0000m      5.0005   
  310.00000m    310.0000m      5.0005   
  315.00000m    315.0000m      5.0005   
  320.00000m    320.0000m      5.0005   
  325.00000m    325.0000m      5.0005   
  330.00000m    330.0000m      5.0005   
  335.00000m    335.0000m      5.0005   
  340.00000m    340.0000m      5.0005   
  345.00000m    345.0000m      5.0005   
  350.00000m    350.0000m      5.0005   
  355.00000m    355.0000m      5.0005   
  360.00000m    360.0000m      5.0005   
  365.00000m    365.0000m      5.0005   
  370.00000m    370.0000m      5.0005   
  375.00000m    375.0000m      5.0005   
  380.00000m    380.0000m      5.0005   
  385.00000m    385.0000m      5.0005   
  390.00000m    390.0000m      5.0005   
  395.00000m    395.0000m      5.0005   
  400.00000m    400.0000m      5.0005   
  405.00000m    405.0000m      5.0005   
  410.00000m    410.0000m      5.0005   
  415.00000m    415.0000m      5.0005   
  420.00000m    420.0000m      5.0005   
  425.00000m    425.0000m      5.0005   
  430.00000m    430.0000m      5.0005   
  435.00000m    435.0000m      5.0005   
  440.00000m    440.0000m      5.0005   
  445.00000m    445.0000m      5.0005   
  450.00000m    450.0000m      5.0005   
  455.00000m    455.0000m      5.0005   
  460.00000m    460.0000m      5.0005   
  465.00000m    465.0000m      5.0005   
  470.00000m    470.0000m      5.0005   
  475.00000m    475.0000m      5.0005   
  480.00000m    480.0000m      5.0005   
  485.00000m    485.0000m      5.0005   
  490.00000m    490.0000m      5.0005   
  495.00000m    495.0000m      5.0005   
  500.00000m    500.0000m      5.0005   
  505.00000m    505.0000m      5.0005   
  510.00000m    510.0000m      5.0005   
  515.00000m    515.0000m      5.0005   
  520.00000m    520.0000m      5.0005   
  525.00000m    525.0000m      5.0005   
  530.00000m    530.0000m      5.0005   
  535.00000m    535.0000m      5.0005   
  540.00000m    540.0000m      5.0005   
  545.00000m    545.0000m      5.0005   
  550.00000m    550.0000m      5.0005   
  555.00000m    555.0000m      5.0005   
  560.00000m    560.0000m      5.0005   
  565.00000m    565.0000m      5.0005   
  570.00000m    570.0000m      5.0005   
  575.00000m    575.0000m      5.0005   
  580.00000m    580.0000m      5.0005   
  585.00000m    585.0000m      5.0005   
  590.00000m    590.0000m      5.0005   
  595.00000m    595.0000m      5.0005   
  600.00000m    600.0000m      5.0005   
  605.00000m    605.0000m      5.0005   
  610.00000m    610.0000m      5.0005   
  615.00000m    615.0000m      5.0005   
  620.00000m    620.0000m      5.0005   
  625.00000m    625.0000m      5.0005   
  630.00000m    630.0000m      5.0005   
  635.00000m    635.0000m      5.0005   
  640.00000m    640.0000m      5.0005   
  645.00000m    645.0000m      5.0005   
  650.00000m    650.0000m      5.0005   
  655.00000m    655.0000m      5.0005   
  660.00000m    660.0000m      5.0005   
  665.00000m    665.0000m      5.0005   
  670.00000m    670.0000m      5.0005   
  675.00000m    675.0000m      5.0005   
  680.00000m    680.0000m      5.0005   
  685.00000m    685.0000m      5.0005   
  690.00000m    690.0000m      5.0005   
  695.00000m    695.0000m      5.0005   
  700.00000m    700.0000m      5.0005   
  705.00000m    705.0000m      5.0005   
  710.00000m    710.0000m      5.0005   
  715.00000m    715.0000m      5.0005   
  720.00000m    720.0000m      5.0005   
  725.00000m    725.0000m      5.0005   
  730.00000m    730.0000m      5.0005   
  735.00000m    735.0000m      5.0005   
  740.00000m    740.0000m      5.0005   
  745.00000m    745.0000m      5.0005   
  750.00000m    750.0000m      5.0005   
  755.00000m    755.0000m      5.0005   
  760.00000m    760.0000m      5.0005   
  765.00000m    765.0000m      5.0005   
  770.00000m    770.0000m      5.0005   
  775.00000m    775.0000m      5.0005   
  780.00000m    780.0000m      5.0005   
  785.00000m    785.0000m      5.0005   
  790.00000m    790.0000m      5.0004   
  795.00000m    795.0000m      5.0004   
  800.00000m    800.0000m      5.0004   
  805.00000m    805.0000m      5.0004   
  810.00000m    810.0000m      5.0004   
  815.00000m    815.0000m      5.0004   
  820.00000m    820.0000m      5.0004   
  825.00000m    825.0000m      5.0004   
  830.00000m    830.0000m      5.0004   
  835.00000m    835.0000m      5.0004   
  840.00000m    840.0000m      5.0004   
  845.00000m    845.0000m      5.0004   
  850.00000m    850.0000m      5.0004   
  855.00000m    855.0000m      5.0004   
  860.00000m    860.0000m      5.0004   
  865.00000m    865.0000m      5.0004   
  870.00000m    870.0000m      5.0004   
  875.00000m    875.0000m      5.0004   
  880.00000m    880.0000m      5.0004   
  885.00000m    885.0000m      5.0004   
  890.00000m    890.0000m      5.0004   
  895.00000m    895.0000m      5.0004   
  900.00000m    900.0000m      5.0004   
  905.00000m    905.0000m      5.0004   
  910.00000m    910.0000m      5.0004   
  915.00000m    915.0000m      5.0004   
  920.00000m    920.0000m      5.0004   
  925.00000m    925.0000m      5.0004   
  930.00000m    930.0000m      5.0004   
  935.00000m    935.0000m      5.0004   
  940.00000m    940.0000m      5.0004   
  945.00000m    945.0000m      5.0004   
  950.00000m    950.0000m      5.0004   
  955.00000m    955.0000m      5.0004   
  960.00000m    960.0000m      5.0004   
  965.00000m    965.0000m      5.0004   
  970.00000m    970.0000m      5.0004   
  975.00000m    975.0000m      5.0004   
  980.00000m    980.0000m      5.0004   
  985.00000m    985.0000m      5.0004   
  990.00000m    990.0000m      5.0004   
  995.00000m    995.0000m      5.0004   
    1.00000       1.0000       5.0004   
    1.00500       1.0050       5.0004   
    1.01000       1.0100       5.0004   
    1.01500       1.0150       5.0004   
    1.02000       1.0200       5.0004   
    1.02500       1.0250       5.0004   
    1.03000       1.0300       5.0004   
    1.03500       1.0350       5.0004   
    1.04000       1.0400       5.0004   
    1.04500       1.0450       5.0004   
    1.05000       1.0500       5.0004   
    1.05500       1.0550       5.0004   
    1.06000       1.0600       5.0004   
    1.06500       1.0650       5.0004   
    1.07000       1.0700       5.0004   
    1.07500       1.0750       5.0004   
    1.08000       1.0800       5.0004   
    1.08500       1.0850       5.0004   
    1.09000       1.0900       5.0004   
    1.09500       1.0950       5.0004   
    1.10000       1.1000       5.0004   
    1.10500       1.1050       5.0004   
    1.11000       1.1100       5.0004   
    1.11500       1.1150       5.0004   
    1.12000       1.1200       5.0004   
    1.12500       1.1250       5.0004   
    1.13000       1.1300       5.0004   
    1.13500       1.1350       5.0004   
    1.14000       1.1400       5.0004   
    1.14500       1.1450       5.0004   
    1.15000       1.1500       5.0004   
    1.15500       1.1550       5.0004   
    1.16000       1.1600       5.0004   
    1.16500       1.1650       5.0004   
    1.17000       1.1700       5.0004   
    1.17500       1.1750       5.0004   
    1.18000       1.1800       5.0004   
    1.18500       1.1850       5.0004   
    1.19000       1.1900       5.0004   
    1.19500       1.1950       5.0004   
    1.20000       1.2000       5.0004   
    1.20500       1.2050       5.0004   
    1.21000       1.2100       5.0004   
    1.21500       1.2150       5.0004   
    1.22000       1.2200       5.0004   
    1.22500       1.2250       5.0004   
    1.23000       1.2300       5.0004   
    1.23500       1.2350       5.0004   
    1.24000       1.2400       5.0004   
    1.24500       1.2450       5.0004   
    1.25000       1.2500       5.0004   
    1.25500       1.2550       5.0004   
    1.26000       1.2600       5.0004   
    1.26500       1.2650       5.0004   
    1.27000       1.2700       5.0004   
    1.27500       1.2750       5.0004   
    1.28000       1.2800       5.0004   
    1.28500       1.2850       5.0004   
    1.29000       1.2900       5.0004   
    1.29500       1.2950       5.0004   
    1.30000       1.3000       5.0004   
    1.30500       1.3050       5.0004   
    1.31000       1.3100       5.0004   
    1.31500       1.3150       5.0004   
    1.32000       1.3200       5.0004   
    1.32500       1.3250       5.0004   
    1.33000       1.3300       5.0004   
    1.33500       1.3350       5.0004   
    1.34000       1.3400       5.0004   
    1.34500       1.3450       5.0004   
    1.35000       1.3500       5.0004   
    1.35500       1.3550       5.0004   
    1.36000       1.3600       5.0004   
    1.36500       1.3650       5.0004   
    1.37000       1.3700       5.0004   
    1.37500       1.3750       5.0004   
    1.38000       1.3800       5.0004   
    1.38500       1.3850       5.0004   
    1.39000       1.3900       5.0004   
    1.39500       1.3950       5.0004   
    1.40000       1.4000       5.0004   
    1.40500       1.4050       5.0004   
    1.41000       1.4100       5.0004   
    1.41500       1.4150       5.0004   
    1.42000       1.4200       5.0004   
    1.42500       1.4250       5.0004   
    1.43000       1.4300       5.0004   
    1.43500       1.4350       5.0004   
    1.44000       1.4400       5.0004   
    1.44500       1.4450       5.0004   
    1.45000       1.4500       5.0004   
    1.45500       1.4550       5.0004   
    1.46000       1.4600       5.0004   
    1.46500       1.4650       5.0004   
    1.47000       1.4700       5.0004   
    1.47500       1.4750       5.0004   
    1.48000       1.4800       5.0004   
    1.48500       1.4850       5.0004   
    1.49000       1.4900       5.0004   
    1.49500       1.4950       5.0004   
    1.50000       1.5000       5.0004   
    1.50500       1.5050       5.0004   
    1.51000       1.5100       5.0004   
    1.51500       1.5150       5.0004   
    1.52000       1.5200       5.0004   
    1.52500       1.5250       5.0004   
    1.53000       1.5300       5.0004   
    1.53500       1.5350       5.0004   
    1.54000       1.5400       5.0003   
    1.54500       1.5450       5.0003   
    1.55000       1.5500       5.0003   
    1.55500       1.5550       5.0003   
    1.56000       1.5600       5.0003   
    1.56500       1.5650       5.0003   
    1.57000       1.5700       5.0003   
    1.57500       1.5750       5.0003   
    1.58000       1.5800       5.0003   
    1.58500       1.5850       5.0003   
    1.59000       1.5900       5.0003   
    1.59500       1.5950       5.0003   
    1.60000       1.6000       5.0003   
    1.60500       1.6050       5.0003   
    1.61000       1.6100       5.0003   
    1.61500       1.6150       5.0003   
    1.62000       1.6200       5.0003   
    1.62500       1.6250       5.0003   
    1.63000       1.6300       5.0003   
    1.63500       1.6350       5.0003   
    1.64000       1.6400       5.0003   
    1.64500       1.6450       5.0003   
    1.65000       1.6500       5.0003   
    1.65500       1.6550       5.0003   
    1.66000       1.6600       5.0003   
    1.66500       1.6650       5.0003   
    1.67000       1.6700       5.0003   
    1.67500       1.6750       5.0003   
    1.68000       1.6800       5.0003   
    1.68500       1.6850       5.0003   
    1.69000       1.6900       5.0003   
    1.69500       1.6950       5.0003   
    1.70000       1.7000       5.0003   
    1.70500       1.7050       5.0003   
    1.71000       1.7100       5.0003   
    1.71500       1.7150       5.0003   
    1.72000       1.7200       5.0003   
    1.72500       1.7250       5.0003   
    1.73000       1.7300       5.0003   
    1.73500       1.7350       5.0003   
    1.74000       1.7400       5.0003   
    1.74500       1.7450       5.0003   
    1.75000       1.7500       5.0003   
    1.75500       1.7550       5.0003   
    1.76000       1.7600       5.0003   
    1.76500       1.7650       5.0003   
    1.77000       1.7700       5.0003   
    1.77500       1.7750       5.0003   
    1.78000       1.7800       5.0003   
    1.78500       1.7850       5.0003   
    1.79000       1.7900       5.0003   
    1.79500       1.7950       5.0003   
    1.80000       1.8000       5.0003   
    1.80500       1.8050       5.0003   
    1.81000       1.8100       5.0003   
    1.81500       1.8150       5.0003   
    1.82000       1.8200       5.0003   
    1.82500       1.8250       5.0003   
    1.83000       1.8300       5.0003   
    1.83500       1.8350       5.0003   
    1.84000       1.8400       5.0003   
    1.84500       1.8450       5.0003   
    1.85000       1.8500       5.0003   
    1.85500       1.8550       5.0003   
    1.86000       1.8600       5.0003   
    1.86500       1.8650       5.0003   
    1.87000       1.8700       5.0003   
    1.87500       1.8750       5.0003   
    1.88000       1.8800       5.0003   
    1.88500       1.8850       5.0003   
    1.89000       1.8900       5.0003   
    1.89500       1.8950       5.0003   
    1.90000       1.9000       5.0003   
    1.90500       1.9050       5.0003   
    1.91000       1.9100       5.0003   
    1.91500       1.9150       5.0003   
    1.92000       1.9200       5.0003   
    1.92500       1.9250       5.0003   
    1.93000       1.9300       5.0003   
    1.93500       1.9350       5.0003   
    1.94000       1.9400       5.0003   
    1.94500       1.9450       5.0003   
    1.95000       1.9500       5.0003   
    1.95500       1.9550       5.0003   
    1.96000       1.9600       5.0003   
    1.96500       1.9650       5.0003   
    1.97000       1.9700       5.0003   
    1.97500       1.9750       5.0003   
    1.98000       1.9800       5.0003   
    1.98500       1.9850       5.0003   
    1.99000       1.9900       5.0003   
    1.99500       1.9950       5.0003   
    2.00000       2.0000       5.0003   
    2.00500       2.0050       5.0003   
    2.01000       2.0100       5.0003   
    2.01500       2.0150       5.0003   
    2.02000       2.0200       5.0003   
    2.02500       2.0250       5.0003   
    2.03000       2.0300       5.0003   
    2.03500       2.0350       5.0003   
    2.04000       2.0400       5.0003   
    2.04500       2.0450       5.0003   
    2.05000       2.0500       5.0003   
    2.05500       2.0550       5.0003   
    2.06000       2.0600       5.0003   
    2.06500       2.0650       5.0003   
    2.07000       2.0700       5.0003   
    2.07500       2.0750       5.0003   
    2.08000       2.0800       5.0003   
    2.08500       2.0850       5.0003   
    2.09000       2.0900       5.0003   
    2.09500       2.0950       5.0003   
    2.10000       2.1000       5.0003   
    2.10500       2.1050       5.0003   
    2.11000       2.1100       5.0003   
    2.11500       2.1150       5.0003   
    2.12000       2.1200       5.0003   
    2.12500       2.1250       5.0003   
    2.13000       2.1300       5.0003   
    2.13500       2.1350       5.0003   
    2.14000       2.1400       5.0003   
    2.14500       2.1450       5.0003   
    2.15000       2.1500       5.0003   
    2.15500       2.1550       5.0003   
    2.16000       2.1600       5.0003   
    2.16500       2.1650       5.0003   
    2.17000       2.1700       5.0003   
    2.17500       2.1750       5.0003   
    2.18000       2.1800       5.0003   
    2.18500       2.1850       5.0003   
    2.19000       2.1900       5.0003   
    2.19500       2.1950       5.0003   
    2.20000       2.2000       5.0003   
    2.20500       2.2050       5.0003   
    2.21000       2.2100       5.0003   
    2.21500       2.2150       5.0003   
    2.22000       2.2200       5.0003   
    2.22500       2.2250       5.0003   
    2.23000       2.2300       5.0003   
    2.23500       2.2350       5.0003   
    2.24000       2.2400       5.0003   
    2.24500       2.2450       5.0003   
    2.25000       2.2500       5.0003   
    2.25500       2.2550       5.0003   
    2.26000       2.2600       5.0003   
    2.26500       2.2650       5.0003   
    2.27000       2.2700       5.0003   
    2.27500       2.2750       5.0003   
    2.28000       2.2800       5.0003   
    2.28500       2.2850       5.0003   
    2.29000       2.2900       5.0002   
    2.29500       2.2950       5.0002   
    2.30000       2.3000       5.0002   
    2.30500       2.3050       5.0002   
    2.31000       2.3100       5.0002   
    2.31500       2.3150       5.0002   
    2.32000       2.3200       5.0002   
    2.32500       2.3250       5.0002   
    2.33000       2.3300       5.0002   
    2.33500       2.3350       5.0002   
    2.34000       2.3400       5.0002   
    2.34500       2.3450       5.0002   
    2.35000       2.3500       5.0002   
    2.35500       2.3550       5.0002   
    2.36000       2.3600       5.0002   
    2.36500       2.3650       5.0002   
    2.37000       2.3700       5.0002   
    2.37500       2.3750       5.0002   
    2.38000       2.3800       5.0002   
    2.38500       2.3850       5.0002   
    2.39000       2.3900       5.0002   
    2.39500       2.3950       5.0002   
    2.40000       2.4000       5.0002   
    2.40500       2.4050       5.0002   
    2.41000       2.4100       5.0002   
    2.41500       2.4150       5.0002   
    2.42000       2.4200       5.0002   
    2.42500       2.4250       5.0002   
    2.43000       2.4300       5.0002   
    2.43500       2.4350       5.0002   
    2.44000       2.4400       5.0002   
    2.44500       2.4450       5.0002   
    2.45000       2.4500       5.0002   
    2.45500       2.4550       5.0002   
    2.46000       2.4600       5.0002   
    2.46500       2.4650       5.0002   
    2.47000       2.4700       5.0002   
    2.47500       2.4750       5.0002   
    2.48000       2.4800       5.0002   
    2.48500       2.4850       5.0002   
    2.49000       2.4900       5.0002   
    2.49500       2.4950       5.0002   
    2.50000       2.5000       5.0002   
    2.50500       2.5050       5.0002   
    2.51000       2.5100       5.0002   
    2.51500       2.5150       5.0002   
    2.52000       2.5200       5.0002   
    2.52500       2.5250       5.0002   
    2.53000       2.5300       5.0002   
    2.53500       2.5350       5.0002   
    2.54000       2.5400       5.0002   
    2.54500       2.5450       5.0002   
    2.55000       2.5500       5.0002   
    2.55500       2.5550       5.0002   
    2.56000       2.5600       5.0002   
    2.56500       2.5650       5.0002   
    2.57000       2.5700       5.0002   
    2.57500       2.5750       5.0002   
    2.58000       2.5800       5.0002   
    2.58500       2.5850       5.0002   
    2.59000       2.5900       5.0002   
    2.59500       2.5950       5.0002   
    2.60000       2.6000       5.0002   
    2.60500       2.6050       5.0002   
    2.61000       2.6100       5.0002   
    2.61500       2.6150       5.0002   
    2.62000       2.6200       5.0002   
    2.62500       2.6250       5.0002   
    2.63000       2.6300       5.0002   
    2.63500       2.6350       5.0002   
    2.64000       2.6400       5.0002   
    2.64500       2.6450       5.0002   
    2.65000       2.6500       5.0002   
    2.65500       2.6550       5.0002   
    2.66000       2.6600       5.0002   
    2.66500       2.6650       5.0002   
    2.67000       2.6700       5.0002   
    2.67500       2.6750       5.0002   
    2.68000       2.6800       5.0002   
    2.68500       2.6850       5.0002   
    2.69000       2.6900       5.0002   
    2.69500       2.6950       5.0002   
    2.70000       2.7000       5.0002   
    2.70500       2.7050       5.0002   
    2.71000       2.7100       5.0002   
    2.71500       2.7150       5.0002   
    2.72000       2.7200       5.0002   
    2.72500       2.7250       5.0002   
    2.73000       2.7300       5.0002   
    2.73500       2.7350       5.0002   
    2.74000       2.7400       5.0002   
    2.74500       2.7450       5.0002   
    2.75000       2.7500       5.0002   
    2.75500       2.7550       5.0002   
    2.76000       2.7600       5.0002   
    2.76500       2.7650       5.0002   
    2.77000       2.7700       5.0002   
    2.77500       2.7750       5.0002   
    2.78000       2.7800       5.0002   
    2.78500       2.7850       5.0002   
    2.79000       2.7900       5.0002   
    2.79500       2.7950       5.0002   
    2.80000       2.8000       5.0002   
    2.80500       2.8050       5.0002   
    2.81000       2.8100       5.0002   
    2.81500       2.8150       5.0002   
    2.82000       2.8200       5.0002   
    2.82500       2.8250       5.0002   
    2.83000       2.8300       5.0002   
    2.83500       2.8350       5.0002   
    2.84000       2.8400       5.0002   
    2.84500       2.8450       5.0002   
    2.85000       2.8500       5.0002   
    2.85500       2.8550       5.0002   
    2.86000       2.8600       5.0002   
    2.86500       2.8650       5.0002   
    2.87000       2.8700       5.0002   
    2.87500       2.8750       5.0002   
    2.88000       2.8800       5.0002   
    2.88500       2.8850       5.0002   
    2.89000       2.8900       5.0002   
    2.89500       2.8950       5.0002   
    2.90000       2.9000       5.0002   
    2.90500       2.9050       5.0002   
    2.91000       2.9100       5.0002   
    2.91500       2.9150       5.0002   
    2.92000       2.9200       5.0002   
    2.92500       2.9250       5.0002   
    2.93000       2.9300       5.0002   
    2.93500       2.9350       5.0002   
    2.94000       2.9400       5.0002   
    2.94500       2.9450       5.0002   
    2.95000       2.9500       5.0002   
    2.95500       2.9550       5.0002   
    2.96000       2.9600       5.0002   
    2.96500       2.9650       5.0002   
    2.97000       2.9700       5.0002   
    2.97500       2.9750       5.0002   
    2.98000       2.9800       5.0002   
    2.98500       2.9850       5.0002   
    2.99000       2.9900       5.0002   
    2.99500       2.9950       5.0002   
    3.00000       3.0000       5.0002   
    3.00500       3.0050       5.0002   
    3.01000       3.0100       5.0002   
    3.01500       3.0150       5.0002   
    3.02000       3.0200       5.0002   
    3.02500       3.0250       5.0002   
    3.03000       3.0300       5.0002   
    3.03500       3.0350       5.0002   
    3.04000       3.0400       5.0001   
    3.04500       3.0450       5.0001   
    3.05000       3.0500       5.0001   
    3.05500       3.0550       5.0001   
    3.06000       3.0600       5.0001   
    3.06500       3.0650       5.0001   
    3.07000       3.0700       5.0001   
    3.07500       3.0750       5.0001   
    3.08000       3.0800       5.0001   
    3.08500       3.0850       5.0001   
    3.09000       3.0900       5.0001   
    3.09500       3.0950       5.0001   
    3.10000       3.1000       5.0001   
    3.10500       3.1050       5.0001   
    3.11000       3.1100       5.0001   
    3.11500       3.1150       5.0001   
    3.12000       3.1200       5.0001   
    3.12500       3.1250       5.0001   
    3.13000       3.1300       5.0001   
    3.13500       3.1350       5.0001   
    3.14000       3.1400       5.0001   
    3.14500       3.1450       5.0001   
    3.15000       3.1500       5.0001   
    3.15500       3.1550       5.0001   
    3.16000       3.1600       5.0001   
    3.16500       3.1650       5.0001   
    3.17000       3.1700       5.0001   
    3.17500       3.1750       5.0001   
    3.18000       3.1800       5.0001   
    3.18500       3.1850       5.0001   
    3.19000       3.1900       5.0001   
    3.19500       3.1950       5.0001   
    3.20000       3.2000       5.0001   
    3.20500       3.2050       5.0001   
    3.21000       3.2100       5.0001   
    3.21500       3.2150       5.0001   
    3.22000       3.2200       5.0001   
    3.22500       3.2250       5.0001   
    3.23000       3.2300       5.0001   
    3.23500       3.2350       5.0001   
    3.24000       3.2400       5.0001   
    3.24500       3.2450       5.0001   
    3.25000       3.2500       5.0001   
    3.25500       3.2550       5.0001   
    3.26000       3.2600       5.0001   
    3.26500       3.2650       5.0001   
    3.27000       3.2700       5.0001   
    3.27500       3.2750       5.0001   
    3.28000       3.2800       5.0001   
    3.28500       3.2850       5.0001   
    3.29000       3.2900       5.0001   
    3.29500       3.2950       5.0001   
    3.30000       3.3000       5.0001   
    3.30500       3.3050       5.0001   
    3.31000       3.3100       5.0001   
    3.31500       3.3150       5.0001   
    3.32000       3.3200       5.0001   
    3.32500       3.3250       5.0001   
    3.33000       3.3300       5.0001   
    3.33500       3.3350       5.0001   
    3.34000       3.3400       5.0001   
    3.34500       3.3450       5.0001   
    3.35000       3.3500       5.0001   
    3.35500       3.3550       5.0001   
    3.36000       3.3600       5.0001   
    3.36500       3.3650       5.0001   
    3.37000       3.3700       5.0001   
    3.37500       3.3750       5.0001   
    3.38000       3.3800       5.0001   
    3.38500       3.3850       5.0001   
    3.39000       3.3900       5.0001   
    3.39500       3.3950       5.0001   
    3.40000       3.4000       5.0001   
    3.40500       3.4050       5.0001   
    3.41000       3.4100       5.0001   
    3.41500       3.4150       5.0001   
    3.42000       3.4200       5.0001   
    3.42500       3.4250       5.0001   
    3.43000       3.4300       5.0001   
    3.43500       3.4350       5.0001   
    3.44000       3.4400       5.0001   
    3.44500       3.4450       5.0001   
    3.45000       3.4500       5.0001   
    3.45500       3.4550       5.0001   
    3.46000       3.4600       5.0001   
    3.46500       3.4650       5.0001   
    3.47000       3.4700       5.0001   
    3.47500       3.4750       5.0001   
    3.48000       3.4800       5.0001   
    3.48500       3.4850       5.0001   
    3.49000       3.4900       5.0001   
    3.49500       3.4950       5.0001   
    3.50000       3.5000       5.0001   
    3.50500       3.5050       5.0001   
    3.51000       3.5100       5.0001   
    3.51500       3.5150       5.0001   
    3.52000       3.5200       5.0001   
    3.52500       3.5250       5.0001   
    3.53000       3.5300       5.0001   
    3.53500       3.5350       5.0001   
    3.54000       3.5400       5.0001   
    3.54500       3.5450       5.0001   
    3.55000       3.5500       5.0001   
    3.55500       3.5550       5.0001   
    3.56000       3.5600       5.0001   
    3.56500       3.5650       5.0001   
    3.57000       3.5700       5.0001   
    3.57500       3.5750       5.0001   
    3.58000       3.5800       5.0001   
    3.58500       3.5850       5.0001   
    3.59000       3.5900       5.0001   
    3.59500       3.5950       5.0001   
    3.60000       3.6000       5.0001   
    3.60500       3.6050       5.0001   
    3.61000       3.6100       5.0001   
    3.61500       3.6150       5.0001   
    3.62000       3.6200       5.0001   
    3.62500       3.6250       5.0001   
    3.63000       3.6300       5.0001   
    3.63500       3.6350       5.0001   
    3.64000       3.6400       5.0001   
    3.64500       3.6450       5.0001   
    3.65000       3.6500       5.0001   
    3.65500       3.6550       5.0001   
    3.66000       3.6600       5.0001   
    3.66500       3.6650       5.0001   
    3.67000       3.6700       5.0001   
    3.67500       3.6750       5.0001   
    3.68000       3.6800       5.0001   
    3.68500       3.6850       5.0001   
    3.69000       3.6900       5.0001   
    3.69500       3.6950       5.0001   
    3.70000       3.7000       5.0001   
    3.70500       3.7050       5.0001   
    3.71000       3.7100       5.0001   
    3.71500       3.7150       5.0001   
    3.72000       3.7200       5.0001   
    3.72500       3.7250       5.0001   
    3.73000       3.7300       5.0001   
    3.73500       3.7350       5.0001   
    3.74000       3.7400       5.0001   
    3.74500       3.7450       5.0001   
    3.75000       3.7500       5.0001   
    3.75500       3.7550       5.0001   
    3.76000       3.7600       5.0001   
    3.76500       3.7650       5.0001   
    3.77000       3.7700       5.0001   
    3.77500       3.7750       5.0001   
    3.78000       3.7800       5.0001   
    3.78500       3.7850       5.0001   
    3.79000       3.7900       5.0000   
    3.79500       3.7950       5.0000   
    3.80000       3.8000       5.0000   
    3.80500       3.8050       5.0000   
    3.81000       3.8100       5.0000   
    3.81500       3.8150       5.0000   
    3.82000       3.8200       5.0000   
    3.82500       3.8250       5.0000   
    3.83000       3.8300       5.0000   
    3.83500       3.8350       5.0000   
    3.84000       3.8400       5.0000   
    3.84500       3.8450       5.0000   
    3.85000       3.8500       5.0000   
    3.85500       3.8550       5.0000   
    3.86000       3.8600       5.0000   
    3.86500       3.8650       5.0000   
    3.87000       3.8700       5.0000   
    3.87500       3.8750       5.0000   
    3.88000       3.8800       5.0000   
    3.88500       3.8850       5.0000   
    3.89000       3.8900       5.0000   
    3.89500       3.8950       5.0000   
    3.90000       3.9000       5.0000   
    3.90500       3.9050       5.0000   
    3.91000       3.9100       5.0000   
    3.91500       3.9150       5.0000   
    3.92000       3.9200       5.0000   
    3.92500       3.9250       5.0000   
    3.93000       3.9300       5.0000   
    3.93500       3.9350       5.0000   
    3.94000       3.9400       5.0000   
    3.94500       3.9450       5.0000   
    3.95000       3.9500       5.0000   
    3.95500       3.9550       5.0000   
    3.96000       3.9600       5.0000   
    3.96500       3.9650       5.0000   
    3.97000       3.9700       5.0000   
    3.97500       3.9750       5.0000   
    3.98000       3.9800       5.0000   
    3.98500       3.9850       5.0000   
    3.99000       3.9900       5.0000   
    3.99500       3.9950       5.0000   
    4.00000       4.0000       5.0000   
    4.00500       4.0050       5.0000   
    4.01000       4.0100       5.0000   
    4.01500       4.0150       5.0000   
    4.02000       4.0200       5.0000   
    4.02500       4.0250       5.0000   
    4.03000       4.0300       5.0000   
    4.03500       4.0350       5.0000   
    4.04000       4.0400       5.0000   
    4.04500       4.0450       5.0000   
    4.05000       4.0500       5.0000   
    4.05500       4.0550       5.0000   
    4.06000       4.0600       5.0000   
    4.06500       4.0650       5.0000   
    4.07000       4.0700       5.0000   
    4.07500       4.0750       5.0000   
    4.08000       4.0800       5.0000   
    4.08500       4.0850       5.0000   
    4.09000       4.0900       5.0000   
    4.09500       4.0950       5.0000   
    4.10000       4.1000       5.0000   
    4.10500       4.1050       5.0000   
    4.11000       4.1100       5.0000   
    4.11500       4.1150       5.0000   
    4.12000       4.1200       5.0000   
    4.12500       4.1250       5.0000   
    4.13000       4.1300       5.0000   
    4.13500       4.1350       5.0000   
    4.14000       4.1400       5.0000   
    4.14500       4.1450       5.0000   
    4.15000       4.1500       5.0000   
    4.15500       4.1550       5.0000   
    4.16000       4.1600       5.0000   
    4.16500       4.1650       5.0000   
    4.17000       4.1700       5.0000   
    4.17500       4.1750       5.0000   
    4.18000       4.1800       5.0000   
    4.18500       4.1850       5.0000   
    4.19000       4.1900       5.0000   
    4.19500       4.1950       5.0000   
    4.20000       4.2000       5.0000   
    4.20500       4.2050       5.0000   
    4.21000       4.2100       5.0000   
    4.21500       4.2150       5.0000   
    4.22000       4.2200       5.0000   
    4.22500       4.2250       5.0000   
    4.23000       4.2300       5.0000   
    4.23500       4.2350       5.0000   
    4.24000       4.2400       5.0000   
    4.24500       4.2450       5.0000   
    4.25000       4.2500       5.0000   
    4.25500       4.2550       5.0000   
    4.26000       4.2600       5.0000   
    4.26500       4.2650       5.0000   
    4.27000       4.2700       5.0000   
    4.27500       4.2750       5.0000   
    4.28000       4.2800       5.0000   
    4.28500       4.2850       5.0000   
    4.29000       4.2900       5.0000   
    4.29500       4.2950       5.0000   
    4.30000       4.3000       5.0000   
    4.30500       4.3050       5.0000   
    4.31000       4.3100       5.0000   
    4.31500       4.3150       5.0000   
    4.32000       4.3200       5.0000   
    4.32500       4.3250       5.0000   
    4.33000       4.3300       5.0000   
    4.33500       4.3350       5.0000   
    4.34000       4.3400       5.0000   
    4.34500       4.3450       5.0000   
    4.35000       4.3500       5.0000   
    4.35500       4.3550       5.0000   
    4.36000       4.3600       5.0000   
    4.36500       4.3650       5.0000   
    4.37000       4.3700       5.0000   
    4.37500       4.3750       5.0000   
    4.38000       4.3800       5.0000   
    4.38500       4.3850       5.0000   
    4.39000       4.3900       5.0000   
    4.39500       4.3950       5.0000   
    4.40000       4.4000       5.0000   
    4.40500       4.4050       5.0000   
    4.41000       4.4100       5.0000   
    4.41500       4.4150       5.0000   
    4.42000       4.4200       5.0000   
    4.42500       4.4250       5.0000   
    4.43000       4.4300       5.0000   
    4.43500       4.4350       5.0000   
    4.44000       4.4400       5.0000   
    4.44500       4.4450       5.0000   
    4.45000       4.4500       5.0000   
    4.45500       4.4550       5.0000   
    4.46000       4.4600       5.0000   
    4.46500       4.4650       5.0000   
    4.47000       4.4700       5.0000   
    4.47500       4.4750       4.9999   
    4.48000       4.4800       4.9999   
    4.48500       4.4850       4.9999   
    4.49000       4.4900       4.9999   
    4.49500       4.4950       4.9999   
    4.50000       4.5000       4.9999   
    4.50500       4.5050       4.9999   
    4.51000       4.5100       4.9999   
    4.51500       4.5150       4.9999   
    4.52000       4.5200       4.9999   
    4.52500       4.5250       4.9999   
    4.53000       4.5300       4.9999   
    4.53500       4.5350       4.9999   
    4.54000       4.5400       4.9999   
    4.54500       4.5450       4.9999   
    4.55000       4.5500       4.9999   
    4.55500       4.5550       4.9999   
    4.56000       4.5600       4.9999   
    4.56500       4.5650       4.9999   
    4.57000       4.5700       4.9999   
    4.57500       4.5750       4.9999   
    4.58000       4.5800       4.9999   
    4.58500       4.5850       4.9999   
    4.59000       4.5900       4.9999   
    4.59500       4.5950       4.9999   
    4.60000       4.6000       4.9999   
    4.60500       4.6050       4.9999   
    4.61000       4.6100       4.9999   
    4.61500       4.6150       4.9999   
    4.62000       4.6200       4.9999   
    4.62500       4.6250       4.9999   
    4.63000       4.6300       4.9999   
    4.63500       4.6350       4.9999   
    4.64000       4.6400       4.9999   
    4.64500       4.6450       4.9999   
    4.65000       4.6500       4.9999   
    4.65500       4.6550       4.9999   
    4.66000       4.6600       4.9999   
    4.66500       4.6650       4.9999   
    4.67000       4.6700       4.9999   
[...]
   57.78500      57.7850    -186.3480   
   57.79000      57.7900    -186.3781   
   57.79500      57.7950    -186.4082   
   57.80000      57.8000    -186.4383   
   57.80500      57.8050    -186.4685   
   57.81000      57.8100    -186.4986   
   57.81500      57.8150    -186.5287   
   57.82000      57.8200    -186.5588   
   57.82500      57.8250    -186.5889   
   57.83000      57.8300    -186.6190   
   57.83500      57.8350    -186.6491   
   57.84000      57.8400    -186.6792   
   57.84500      57.8450    -186.7094   
   57.85000      57.8500    -186.7395   
   57.85500      57.8550    -186.7696   
   57.86000      57.8600    -186.7997   
   57.86500      57.8650    -186.8298   
   57.87000      57.8700    -186.8599   
   57.87500      57.8750    -186.8900   
   57.88000      57.8800    -186.9202   
   57.88500      57.8850    -186.9503   
   57.89000      57.8900    -186.9804   
   57.89500      57.8950    -187.0105   
   57.90000      57.9000    -187.0406   
   57.90500      57.9050    -187.0707   
   57.91000      57.9100    -187.1009   
   57.91500      57.9150    -187.1310   
   57.92000      57.9200    -187.1611   
   57.92500      57.9250    -187.1912   
   57.93000      57.9300    -187.2213   
   57.93500      57.9350    -187.2515   
   57.94000      57.9400    -187.2816   
   57.94500      57.9450    -187.3117   
   57.95000      57.9500    -187.3418   
   57.95500      57.9550    -187.3719   
   57.96000      57.9600    -187.4020   
   57.96500      57.9650    -187.4322   
   57.97000      57.9700    -187.4623   
   57.97500      57.9750    -187.4924   
   57.98000      57.9800    -187.5225   
   57.98500      57.9850    -187.5526   
   57.99000      57.9900    -187.5828   
   57.99500      57.9950    -187.6129   
   58.00000      58.0000    -187.6430   
   58.00500      58.0050    -187.6731   
   58.01000      58.0100    -187.7033   
   58.01500      58.0150    -187.7334   
   58.02000      58.0200    -187.7635   
   58.02500      58.0250    -187.7936   
   58.03000      58.0300    -187.8237   
   58.03500      58.0350    -187.8539   
   58.04000      58.0400    -187.8840   
   58.04500      58.0450    -187.9141   
   58.05000      58.0500    -187.9442   
   58.05500      58.0550    -187.9744   
   58.06000      58.0600    -188.0045   
   58.06500      58.0650    -188.0346   
   58.07000      58.0700    -188.0647   
   58.07500      58.0750    -188.0949   
   58.08000      58.0800    -188.1250   
   58.08500      58.0850    -188.1551   
   58.09000      58.0900    -188.1852   
   58.09500      58.0950    -188.2154   
   58.10000      58.1000    -188.2455   
   58.10500      58.1050    -188.2756   
   58.11000      58.1100    -188.3057   
   58.11500      58.1150    -188.3359   
   58.12000      58.1200    -188.3660   
   58.12500      58.1250    -188.3961   
   58.13000      58.1300    -188.4262   
   58.13500      58.1350    -188.4564   
   58.14000      58.1400    -188.4865   
   58.14500      58.1450    -188.5166   
   58.15000      58.1500    -188.5467   
   58.15500      58.1550    -188.5769   
   58.16000      58.1600    -188.6070   
   58.16500      58.1650    -188.6371   
   58.17000      58.1700    -188.6673   
   58.17500      58.1750    -188.6974   
   58.18000      58.1800    -188.7275   
   58.18500      58.1850    -188.7576   
   58.19000      58.1900    -188.7878   
   58.19500      58.1950    -188.8179   
   58.20000      58.2000    -188.8480   
   58.20500      58.2050    -188.8782   
   58.21000      58.2100    -188.9083   
   58.21500      58.2150    -188.9384   
   58.22000      58.2200    -188.9686   
   58.22500      58.2250    -188.9987   
   58.23000      58.2300    -189.0288   
   58.23500      58.2350    -189.0590   
   58.24000      58.2400    -189.0891   
   58.24500      58.2450    -189.1192   
   58.25000      58.2500    -189.1493   
   58.25500      58.2550    -189.1795   
   58.26000      58.2600    -189.2096   
   58.26500      58.2650    -189.2397   
   58.27000      58.2700    -189.2699   
   58.27500      58.2750    -189.3000   
   58.28000      58.2800    -189.3301   
   58.28500      58.2850    -189.3603   
   58.29000      58.2900    -189.3904   
   58.29500      58.2950    -189.4205   
   58.30000      58.3000    -189.4507   
   58.30500      58.3050    -189.4808   
   58.31000      58.3100    -189.5110   
   58.31500      58.3150    -189.5411   
   58.32000      58.3200    -189.5712   
   58.32500      58.3250    -189.6014   
   58.33000      58.3300    -189.6315   
   58.33500      58.3350    -189.6616   
   58.34000      58.3400    -189.6918   
   58.34500      58.3450    -189.7219   
   58.35000      58.3500    -189.7520   
   58.35500      58.3550    -189.7822   
   58.36000      58.3600    -189.8123   
   58.36500      58.3650    -189.8425   
   58.37000      58.3700    -189.8726   
   58.37500      58.3750    -189.9027   
   58.38000      58.3800    -189.9329   
   58.38500      58.3850    -189.9630   
   58.39000      58.3900    -189.9931   
   58.39500      58.3950    -190.0233   
   58.40000      58.4000    -190.0534   
   58.40500      58.4050    -190.0836   
   58.41000      58.4100    -190.1137   
   58.41500      58.4150    -190.1438   
   58.42000      58.4200    -190.1740   
   58.42500      58.4250    -190.2041   
   58.43000      58.4300    -190.2343   
   58.43500      58.4350    -190.2644   
   58.44000      58.4400    -190.2945   
   58.44500      58.4450    -190.3247   
   58.45000      58.4500    -190.3548   
   58.45500      58.4550    -190.3850   
   58.46000      58.4600    -190.4151   
   58.46500      58.4650    -190.4452   
   58.47000      58.4700    -190.4754   
   58.47500      58.4750    -190.5055   
   58.48000      58.4800    -190.5357   
   58.48500      58.4850    -190.5658   
   58.49000      58.4900    -190.5960   
   58.49500      58.4950    -190.6261   
   58.50000      58.5000    -190.6562   
   58.50500      58.5050    -190.6864   
   58.51000      58.5100    -190.7165   
   58.51500      58.5150    -190.7467   
   58.52000      58.5200    -190.7768   
   58.52500      58.5250    -190.8070   
   58.53000      58.5300    -190.8371   
   58.53500      58.5350    -190.8673   
   58.54000      58.5400    -190.8974   
   58.54500      58.5450    -190.9275   
   58.55000      58.5500    -190.9577   
   58.55500      58.5550    -190.9878   
   58.56000      58.5600    -191.0180   
   58.56500      58.5650    -191.0481   
   58.57000      58.5700    -191.0783   
   58.57500      58.5750    -191.1084   
   58.58000      58.5800    -191.1386   
   58.58500      58.5850    -191.1687   
   58.59000      58.5900    -191.1989   
   58.59500      58.5950    -191.2290   
   58.60000      58.6000    -191.2592   
   58.60500      58.6050    -191.2893   
   58.61000      58.6100    -191.3194   
   58.61500      58.6150    -191.3496   
   58.62000      58.6200    -191.3797   
   58.62500      58.6250    -191.4099   
   58.63000      58.6300    -191.4400   
   58.63500      58.6350    -191.4702   
   58.64000      58.6400    -191.5003   
   58.64500      58.6450    -191.5305   
   58.65000      58.6500    -191.5606   
   58.65500      58.6550    -191.5908   
   58.66000      58.6600    -191.6209   
   58.66500      58.6650    -191.6511   
   58.67000      58.6700    -191.6812   
   58.67500      58.6750    -191.7114   
   58.68000      58.6800    -191.7415   
   58.68500      58.6850    -191.7717   
   58.69000      58.6900    -191.8018   
   58.69500      58.6950    -191.8320   
   58.70000      58.7000    -191.8622   
   58.70500      58.7050    -191.8923   
   58.71000      58.7100    -191.9225   
   58.71500      58.7150    -191.9526   
   58.72000      58.7200    -191.9828   
   58.72500      58.7250    -192.0129   
   58.73000      58.7300    -192.0431   
   58.73500      58.7350    -192.0732   
   58.74000      58.7400    -192.1034   
   58.74500      58.7450    -192.1335   
   58.75000      58.7500    -192.1637   
   58.75500      58.7550    -192.1938   
   58.76000      58.7600    -192.2240   
   58.76500      58.7650    -192.2541   
   58.77000      58.7700    -192.2843   
   58.77500      58.7750    -192.3145   
   58.78000      58.7800    -192.3446   
   58.78500      58.7850    -192.3748   
   58.79000      58.7900    -192.4049   
   58.79500      58.7950    -192.4351   
   58.80000      58.8000    -192.4652   
   58.80500      58.8050    -192.4954   
   58.81000      58.8100    -192.5255   
   58.81500      58.8150    -192.5557   
   58.82000      58.8200    -192.5859   
   58.82500      58.8250    -192.6160   
   58.83000      58.8300    -192.6462   
   58.83500      58.8350    -192.6763   
   58.84000      58.8400    -192.7065   
   58.84500      58.8450    -192.7367   
   58.85000      58.8500    -192.7668   
   58.85500      58.8550    -192.7970   
   58.86000      58.8600    -192.8271   
   58.86500      58.8650    -192.8573   
   58.87000      58.8700    -192.8874   
   58.87500      58.8750    -192.9176   
   58.88000      58.8800    -192.9478   
   58.88500      58.8850    -192.9779   
   58.89000      58.8900    -193.0081   
   58.89500      58.8950    -193.0382   
   58.90000      58.9000    -193.0684   
   58.90500      58.9050    -193.0986   
   58.91000      58.9100    -193.1287   
   58.91500      58.9150    -193.1589   
   58.92000      58.9200    -193.1890   
   58.92500      58.9250    -193.2192   
   58.93000      58.9300    -193.2494   
   58.93500      58.9350    -193.2795   
   58.94000      58.9400    -193.3097   
   58.94500      58.9450    -193.3399   
   58.95000      58.9500    -193.3700   
   58.95500      58.9550    -193.4002   
   58.96000      58.9600    -193.4303   
   58.96500      58.9650    -193.4605   
   58.97000      58.9700    -193.4907   
   58.97500      58.9750    -193.5208   
   58.98000      58.9800    -193.5510   
   58.98500      58.9850    -193.5812   
   58.99000      58.9900    -193.6113   
   58.99500      58.9950    -193.6415   
   59.00000      59.0000    -193.6717   
   59.00500      59.0050    -193.7018   
   59.01000      59.0100    -193.7320   
   59.01500      59.0150    -193.7622   
   59.02000      59.0200    -193.7923   
   59.02500      59.0250    -193.8225   
   59.03000      59.0300    -193.8527   
   59.03500      59.0350    -193.8828   
   59.04000      59.0400    -193.9130   
   59.04500      59.0450    -193.9432   
   59.05000      59.0500    -193.9733   
   59.05500      59.0550    -194.0035   
   59.06000      59.0600    -194.0337   
   59.06500      59.0650    -194.0638   
   59.07000      59.0700    -194.0940   
   59.07500      59.0750    -194.1242   
   59.08000      59.0800    -194.1543   
   59.08500      59.0850    -194.1845   
   59.09000      59.0900    -194.2147   
   59.09500      59.0950    -194.2448   
   59.10000      59.1000    -194.2750   
   59.10500      59.1050    -194.3052   
   59.11000      59.1100    -194.3353   
   59.11500      59.1150    -194.3655   
   59.12000      59.1200    -194.3957   
   59.12500      59.1250    -194.4258   
   59.13000      59.1300    -194.4560   
   59.13500      59.1350    -194.4862   
   59.14000      59.1400    -194.5164   
   59.14500      59.1450    -194.5465   
   59.15000      59.1500    -194.5767   
   59.15500      59.1550    -194.6069   
   59.16000      59.1600    -194.6370   
   59.16500      59.1650    -194.6672   
   59.17000      59.1700    -194.6974   
   59.17500      59.1750    -194.7276   
   59.18000      59.1800    -194.7577   
   59.18500      59.1850    -194.7879   
   59.19000      59.1900    -194.8181   
   59.19500      59.1950    -194.8483   
   59.20000      59.2000    -194.8784   
   59.20500      59.2050    -194.9086   
   59.21000      59.2100    -194.9388   
   59.21500      59.2150    -194.9689   
   59.22000      59.2200    -194.9991   
   59.22500      59.2250    -195.0293   
   59.23000      59.2300    -195.0595   
   59.23500      59.2350    -195.0896   
   59.24000      59.2400    -195.1198   
   59.24500      59.2450    -195.1500   
   59.25000      59.2500    -195.1802   
   59.25500      59.2550    -195.2103   
   59.26000      59.2600    -195.2405   
   59.26500      59.2650    -195.2707   
   59.27000      59.2700    -195.3009   
   59.27500      59.2750    -195.3310   
   59.28000      59.2800    -195.3612   
   59.28500      59.2850    -195.3914   
   59.29000      59.2900    -195.4216   
   59.29500      59.2950    -195.4518   
   59.30000      59.3000    -195.4819   
   59.30500      59.3050    -195.5121   
   59.31000      59.3100    -195.5423   
   59.31500      59.3150    -195.5725   
   59.32000      59.3200    -195.6026   
   59.32500      59.3250    -195.6328   
   59.33000      59.3300    -195.6630   
   59.33500      59.3350    -195.6932   
   59.34000      59.3400    -195.7234   
   59.34500      59.3450    -195.7535   
   59.35000      59.3500    -195.7837   
   59.35500      59.3550    -195.8139   
   59.36000      59.3600    -195.8441   
   59.36500      59.3650    -195.8743   
   59.37000      59.3700    -195.9044   
   59.37500      59.3750    -195.9346   
   59.38000      59.3800    -195.9648   
   59.38500      59.3850    -195.9950   
   59.39000      59.3900    -196.0252   
   59.39500      59.3950    -196.0553   
   59.40000      59.4000    -196.0855   
   59.40500      59.4050    -196.1157   
   59.41000      59.4100    -196.1459   
   59.41500      59.4150    -196.1761   
   59.42000      59.4200    -196.2063   
   59.42500      59.4250    -196.2364   
   59.43000      59.4300    -196.2666   
   59.43500      59.4350    -196.2968   
   59.44000      59.4400    -196.3270   
   59.44500      59.4450    -196.3572   
   59.45000      59.4500    -196.3874   
   59.45500      59.4550    -196.4175   
   59.46000      59.4600    -196.4477   
   59.46500      59.4650    -196.4779   
   59.47000      59.4700    -196.5081   
   59.47500      59.4750    -196.5383   
   59.48000      59.4800    -196.5685   
   59.48500      59.4850    -196.5986   
   59.49000      59.4900    -196.6288   
   59.49500      59.4950    -196.6590   
   59.50000      59.5000    -196.6892   
   59.50500      59.5050    -196.7194   
   59.51000      59.5100    -196.7496   
   59.51500      59.5150    -196.7798   
   59.52000      59.5200    -196.8099   
   59.52500      59.5250    -196.8401   
   59.53000      59.5300    -196.8703   
   59.53500      59.5350    -196.9005   
   59.54000      59.5400    -196.9307   
   59.54500      59.5450    -196.9609   
   59.55000      59.5500    -196.9911   
   59.55500      59.5550    -197.0213   
   59.56000      59.5600    -197.0514   
   59.56500      59.5650    -197.0816   
   59.57000      59.5700    -197.1118   
   59.57500      59.5750    -197.1420   
   59.58000      59.5800    -197.1722   
   59.58500      59.5850    -197.2024   
   59.59000      59.5900    -197.2326   
   59.59500      59.5950    -197.2628   
   59.60000      59.6000    -197.2930   
   59.60500      59.6050    -197.3231   
   59.61000      59.6100    -197.3533   
   59.61500      59.6150    -197.3835   
   59.62000      59.6200    -197.4137   
   59.62500      59.6250    -197.4439   
   59.63000      59.6300    -197.4741   
   59.63500      59.6350    -197.5043   
   59.64000      59.6400    -197.5345   
   59.64500      59.6450    -197.5647   
   59.65000      59.6500    -197.5949   
   59.65500      59.6550    -197.6251   
   59.66000      59.6600    -197.6553   
   59.66500      59.6650    -197.6854   
   59.67000      59.6700    -197.7156   
   59.67500      59.6750    -197.7458   
   59.68000      59.6800    -197.7760   
   59.68500      59.6850    -197.8062   
   59.69000      59.6900    -197.8364   
   59.69500      59.6950    -197.8666   
   59.70000      59.7000    -197.8968   
   59.70500      59.7050    -197.9270   
   59.71000      59.7100    -197.9572   
   59.71500      59.7150    -197.9874   
   59.72000      59.7200    -198.0176   
   59.72500      59.7250    -198.0478   
   59.73000      59.7300    -198.0780   
   59.73500      59.7350    -198.1082   
   59.74000      59.7400    -198.1384   
   59.74500      59.7450    -198.1686   
   59.75000      59.7500    -198.1987   
   59.75500      59.7550    -198.2289   
   59.76000      59.7600    -198.2591   
   59.76500      59.7650    -198.2893   
   59.77000      59.7700    -198.3195   
   59.77500      59.7750    -198.3497   
   59.78000      59.7800    -198.3799   
   59.78500      59.7850    -198.4101   
   59.79000      59.7900    -198.4403   
   59.79500      59.7950    -198.4705   
   59.80000      59.8000    -198.5007   
   59.80500      59.8050    -198.5309   
   59.81000      59.8100    -198.5611   
   59.81500      59.8150    -198.5913   
   59.82000      59.8200    -198.6215   
   59.82500      59.8250    -198.6517   
   59.83000      59.8300    -198.6819   
   59.83500      59.8350    -198.7121   
   59.84000      59.8400    -198.7423   
   59.84500      59.8450    -198.7725   
   59.85000      59.8500    -198.8027   
   59.85500      59.8550    -198.8329   
   59.86000      59.8600    -198.8631   
   59.86500      59.8650    -198.8933   
   59.87000      59.8700    -198.9235   
   59.87500      59.8750    -198.9537   
   59.88000      59.8800    -198.9839   
   59.88500      59.8850    -199.0141   
   59.89000      59.8900    -199.0443   
   59.89500      59.8950    -199.0745   
   59.90000      59.9000    -199.1047   
   59.90500      59.9050    -199.1349   
   59.91000      59.9100    -199.1651   
   59.91500      59.9150    -199.1953   
   59.92000      59.9200    -199.2255   
   59.92500      59.9250    -199.2557   
   59.93000      59.9300    -199.2859   
   59.93500      59.9350    -199.3161   
   59.94000      59.9400    -199.3463   
   59.94500      59.9450    -199.3766   
   59.95000      59.9500    -199.4068   
   59.95500      59.9550    -199.4370   
   59.96000      59.9600    -199.4672   
   59.96500      59.9650    -199.4974   
   59.97000      59.9700    -199.5276   
   59.97500      59.9750    -199.5578   
   59.98000      59.9800    -199.5880   
   59.98500      59.9850    -199.6182   
   59.99000      59.9900    -199.6484   
   59.99500      59.9950    -199.6786   
   60.00000      60.0000    -199.7088   
y

          ***** job concluded
1****** HSPICE -- C-2009.03-SP1 32-BIT (May 25 2009) winnt ******               
 ******  
 ** 40 cascaded, 2 paralleled cells

  ******  job statistics summary tnom=  25.000 temp=  25.000 *****

  ******  HSPICE Threads Information  ******
  Command Line Threads Count                  :     1
  Available CPU Count                         :     8
  Actual Model Evaluation(Load) Threads Count :     1
  Actual Solver Threads Count                 :     1


  ******  Circuit Statistics  ******
  # nodes       =      46 # elements   =      85
  # resistors   =      46 # capacitors =       0 # inductors   =       0
  # mutual_inds =       0 # vccs       =       0 # vcvs        =       0
  # cccs        =       0 # ccvs       =       0 # volt_srcs   =       1
  # curr_srcs   =      16 # diodes     =      22 # bjts        =       0
  # jfets       =       0 # mosfets    =       0 # U elements  =       0
  # T elements  =       0 # W elements =       0 # B elements  =       0
  # S elements  =       0 # P elements =       0 # va device   =       0


  ******  Runtime Statistics (seconds)  ******

  analysis           time    # points   tot. iter  conv.iter
  op point           0.00           1           0
  dc sweep           1.39       12001       24036
  readin             0.05
  errchk             0.02
  setup              0.02
  output             0.04


           total memory used          371  kbytes
           total cpu time            1.54 seconds
           total elapsed time        1.57 seconds
           job started at     11:29:04 06/17/2015
           job ended   at     11:29:06 06/17/2015


 Init: hspice initialization file: C:\synopsys\Hspice_C-2009.03-SP1\hspice.ini
  lic: Release hspice token(s) 
