 ****** HSPICE -- C-2009.03-SP1 32-BIT (May 25 2009) winnt ******               
  Copyright (C) 2009 Synopsys, Inc. All Rights Reserved.                        
  Unpublished-rights reserved under US copyright laws.
  This program is protected by law and is subject to the 
  terms and conditions of the license agreement from Synopsys.
  Use of this program is your acceptance to be bound by the 
  license agreement. HSPICE is the trademark of Synopsys, Inc.
  Input File: C:\Users\Administrator\Desktop\MultiLevel\cwModel.sp              
  lic:  
  lic: FLEXlm: v8.5b 
  lic: USER:   Administrator        HOSTNAME: WIN-HBGPFB5Q4D3 
  lic: HOSTID: "002268384615 005056c00001 005056c00008" PID:      6000 
  lic: Using FLEXlm license file: 
  lic: C:\synopsys\hspice_2009-03.lic 
  lic: Checkout 1 hspice 
  lic: License/Maintenance for hspice will expire on 31-dec-2020/2007.9 
  lic: NODE LOCKED license on hostid "002268384615 005056c00001 005056c00008" 
  lic:   
 Init: read install configuration file: C:\synopsys\Hspice_C-2009.03-SP1\meta.cfg
 Init: hspice initialization file: C:\synopsys\Hspice_C-2009.03-SP1\hspice.ini




1****** HSPICE -- C-2009.03-SP1 32-BIT (May 25 2009) winnt ******               
 ******  
 ** 30 cascaded, 4 paralleled cells

  ******  diode model parameters tnom=  25.000 temp=  25.000 *****
 ********************************************************
 *** common model parameters model name:   0:diode111****
 ********************************************************

     names  values   units     names  values   units     names  values   units
     -----  ------   -----     -----  ------   -----     -----  ------   -----

   1*** dc breakdown parameters ***
       vb=   0.    volts        ibv=   1.00m amps   

   2*** parasitic resistance parameters ***
       rs=   0.    ohms   

   3*** capacitance parameters ***
       fc= 500.00m              fcs= 500.00m                m= 500.00m        
     mjsw= 330.00m               pb= 800.00m volts        php= 800.00m volts  
       tt=   0.    secs         cjo=   0.    f/area       cjp=   0.    f/pj   

   4*** temperature effect parameters ***
     tlev=   0.               tlevc=   0.                 tcv=   0.    v/deg k
      trs=   0.    /deg         cta=   0.    /deg         ctp=   0.    /deg   
      xti=   3.00            xtitun=   3.00               keg=   1.00         
       eg=   1.11  ev          gap1= 702.00u  ev/deg     gap2=   1.11k  deg   
     ttt1=   0.    /deg        ttt2=   0.    /deg2        tm1=   0.    /deg   
      tm2=   0.    /deg2        tpb=   0.    v/deg k     tphp=   0.    v/deg k
     tref=  25.00   deg c 

   5*** noise parameters ***
       kf=   0.                  af=   1.00         

   ***  level   1  model parameters  ***

    level=   1.00                is=   1.00u amps         jsw=   0.    amps   
        n=  18.00               nbv=  18.00                ik=   0.    amp    
     area=   1.00                pj=   0.                 ikr=   0.    amp    
    expli=   0.    amps      explir=   0.    amps        jtun=   0.    amps   
   jtunsw=   0.    amps        ntun=  30.00         
  
 ********************************************************
 *** common model parameters model name:   0:diode11_****
 ********************************************************

     names  values   units     names  values   units     names  values   units
     -----  ------   -----     -----  ------   -----     -----  ------   -----

   1*** dc breakdown parameters ***
       vb=   0.    volts        ibv=   1.00m amps   

   2*** parasitic resistance parameters ***
       rs=   0.    ohms   

   3*** capacitance parameters ***
       fc= 500.00m              fcs= 500.00m                m= 500.00m        
     mjsw= 330.00m               pb= 800.00m volts        php= 800.00m volts  
       tt=   0.    secs         cjo=   0.    f/area       cjp=   0.    f/pj   

   4*** temperature effect parameters ***
     tlev=   0.               tlevc=   0.                 tcv=   0.    v/deg k
      trs=   0.    /deg         cta=   0.    /deg         ctp=   0.    /deg   
      xti=   3.00            xtitun=   3.00               keg=   1.00         
       eg=   1.11  ev          gap1= 702.00u  ev/deg     gap2=   1.11k  deg   
     ttt1=   0.    /deg        ttt2=   0.    /deg2        tm1=   0.    /deg   
      tm2=   0.    /deg2        tpb=   0.    v/deg k     tphp=   0.    v/deg k
     tref=  25.00   deg c 

   5*** noise parameters ***
       kf=   0.                  af=   1.00         

   ***  level   1  model parameters  ***

    level=   1.00                is=   1.00u amps         jsw=   0.    amps   
        n=   4.50               nbv=   4.50                ik=   0.    amp    
     area=   1.00                pj=   0.                 ikr=   0.    amp    
    expli=   0.    amps      explir=   0.    amps        jtun=   0.    amps   
   jtunsw=   0.    amps        ntun=  30.00         
  
 ********************************************************
 *** common model parameters model name:   0:diode_bp****
 ********************************************************

     names  values   units     names  values   units     names  values   units
     -----  ------   -----     -----  ------   -----     -----  ------   -----

   1*** dc breakdown parameters ***
       vb=   0.    volts        ibv=   1.00m amps   

   2*** parasitic resistance parameters ***
       rs=   0.    ohms   

   3*** capacitance parameters ***
       fc= 500.00m              fcs= 500.00m                m= 500.00m        
     mjsw= 330.00m               pb= 800.00m volts        php= 800.00m volts  
       tt=   0.    secs         cjo=   0.    f/area       cjp=   0.    f/pj   

   4*** temperature effect parameters ***
     tlev=   0.               tlevc=   0.                 tcv=   0.    v/deg k
      trs=   0.    /deg         cta=   0.    /deg         ctp=   0.    /deg   
      xti=   3.00            xtitun=   3.00               keg=   1.00         
       eg=   1.11  ev          gap1= 702.00u  ev/deg     gap2=   1.11k  deg   
     ttt1=   0.    /deg        ttt2=   0.    /deg2        tm1=   0.    /deg   
      tm2=   0.    /deg2        tpb=   0.    v/deg k     tphp=   0.    v/deg k
     tref=  25.00   deg c 

   5*** noise parameters ***
       kf=   0.                  af=   1.00         

   ***  level   1  model parameters  ***

    level=   1.00                is=  10.00u amps         jsw=   0.    amps   
        n=   1.00               nbv=   1.00                ik=   0.    amp    
     area=   1.00                pj=   0.                 ikr=   0.    amp    
    expli=   0.    amps      explir=   0.    amps        jtun=   0.    amps   
   jtunsw=   0.    amps        ntun=  30.00         
  
 ********************************************************
 *** common model parameters model name:   0:diode112****
 ********************************************************

     names  values   units     names  values   units     names  values   units
     -----  ------   -----     -----  ------   -----     -----  ------   -----

   1*** dc breakdown parameters ***
       vb=   0.    volts        ibv=   1.00m amps   

   2*** parasitic resistance parameters ***
       rs=   0.    ohms   

   3*** capacitance parameters ***
       fc= 500.00m              fcs= 500.00m                m= 500.00m        
     mjsw= 330.00m               pb= 800.00m volts        php= 800.00m volts  
       tt=   0.    secs         cjo=   0.    f/area       cjp=   0.    f/pj   

   4*** temperature effect parameters ***
     tlev=   0.               tlevc=   0.                 tcv=   0.    v/deg k
      trs=   0.    /deg         cta=   0.    /deg         ctp=   0.    /deg   
      xti=   3.00            xtitun=   3.00               keg=   1.00         
       eg=   1.11  ev          gap1= 702.00u  ev/deg     gap2=   1.11k  deg   
     ttt1=   0.    /deg        ttt2=   0.    /deg2        tm1=   0.    /deg   
      tm2=   0.    /deg2        tpb=   0.    v/deg k     tphp=   0.    v/deg k
     tref=  25.00   deg c 

   5*** noise parameters ***
       kf=   0.                  af=   1.00         

   ***  level   1  model parameters  ***

    level=   1.00                is=   1.00u amps         jsw=   0.    amps   
        n=  16.50               nbv=  16.50                ik=   0.    amp    
     area=   1.00                pj=   0.                 ikr=   0.    amp    
    expli=   0.    amps      explir=   0.    amps        jtun=   0.    amps   
   jtunsw=   0.    amps        ntun=  30.00         
  
 ********************************************************
 *** common model parameters model name:   0:diode21_****
 ********************************************************

     names  values   units     names  values   units     names  values   units
     -----  ------   -----     -----  ------   -----     -----  ------   -----

   1*** dc breakdown parameters ***
       vb=   0.    volts        ibv=   1.00m amps   

   2*** parasitic resistance parameters ***
       rs=   0.    ohms   

   3*** capacitance parameters ***
       fc= 500.00m              fcs= 500.00m                m= 500.00m        
     mjsw= 330.00m               pb= 800.00m volts        php= 800.00m volts  
       tt=   0.    secs         cjo=   0.    f/area       cjp=   0.    f/pj   

   4*** temperature effect parameters ***
     tlev=   0.               tlevc=   0.                 tcv=   0.    v/deg k
      trs=   0.    /deg         cta=   0.    /deg         ctp=   0.    /deg   
      xti=   3.00            xtitun=   3.00               keg=   1.00         
       eg=   1.11  ev          gap1= 702.00u  ev/deg     gap2=   1.11k  deg   
     ttt1=   0.    /deg        ttt2=   0.    /deg2        tm1=   0.    /deg   
      tm2=   0.    /deg2        tpb=   0.    v/deg k     tphp=   0.    v/deg k
     tref=  25.00   deg c 

   5*** noise parameters ***
       kf=   0.                  af=   1.00         

   ***  level   1  model parameters  ***

    level=   1.00                is=   1.00u amps         jsw=   0.    amps   
        n=   1.50               nbv=   1.50                ik=   0.    amp    
     area=   1.00                pj=   0.                 ikr=   0.    amp    
    expli=   0.    amps      explir=   0.    amps        jtun=   0.    amps   
   jtunsw=   0.    amps        ntun=  30.00         
  
 ********************************************************
 *** common model parameters model name:   0:diode21_****
 ********************************************************

     names  values   units     names  values   units     names  values   units
     -----  ------   -----     -----  ------   -----     -----  ------   -----

   1*** dc breakdown parameters ***
       vb=   0.    volts        ibv=   1.00m amps   

   2*** parasitic resistance parameters ***
       rs=   0.    ohms   

   3*** capacitance parameters ***
       fc= 500.00m              fcs= 500.00m                m= 500.00m        
     mjsw= 330.00m               pb= 800.00m volts        php= 800.00m volts  
       tt=   0.    secs         cjo=   0.    f/area       cjp=   0.    f/pj   

   4*** temperature effect parameters ***
     tlev=   0.               tlevc=   0.                 tcv=   0.    v/deg k
      trs=   0.    /deg         cta=   0.    /deg         ctp=   0.    /deg   
      xti=   3.00            xtitun=   3.00               keg=   1.00         
       eg=   1.11  ev          gap1= 702.00u  ev/deg     gap2=   1.11k  deg   
     ttt1=   0.    /deg        ttt2=   0.    /deg2        tm1=   0.    /deg   
      tm2=   0.    /deg2        tpb=   0.    v/deg k     tphp=   0.    v/deg k
     tref=  25.00   deg c 

   5*** noise parameters ***
       kf=   0.                  af=   1.00         

   ***  level   1  model parameters  ***

    level=   1.00                is=   1.00u amps         jsw=   0.    amps   
        n=   3.00               nbv=   3.00                ik=   0.    amp    
     area=   1.00                pj=   0.                 ikr=   0.    amp    
    expli=   0.    amps      explir=   0.    amps        jtun=   0.    amps   
   jtunsw=   0.    amps        ntun=  30.00         
  
 ********************************************************
 *** common model parameters model name:   0:diode21_****
 ********************************************************

     names  values   units     names  values   units     names  values   units
     -----  ------   -----     -----  ------   -----     -----  ------   -----

   1*** dc breakdown parameters ***
       vb=   0.    volts        ibv=   1.00m amps   

   2*** parasitic resistance parameters ***
       rs=   0.    ohms   

   3*** capacitance parameters ***
       fc= 500.00m              fcs= 500.00m                m= 500.00m        
     mjsw= 330.00m               pb= 800.00m volts        php= 800.00m volts  
       tt=   0.    secs         cjo=   0.    f/area       cjp=   0.    f/pj   

   4*** temperature effect parameters ***
     tlev=   0.               tlevc=   0.                 tcv=   0.    v/deg k
      trs=   0.    /deg         cta=   0.    /deg         ctp=   0.    /deg   
      xti=   3.00            xtitun=   3.00               keg=   1.00         
       eg=   1.11  ev          gap1= 702.00u  ev/deg     gap2=   1.11k  deg   
     ttt1=   0.    /deg        ttt2=   0.    /deg2        tm1=   0.    /deg   
      tm2=   0.    /deg2        tpb=   0.    v/deg k     tphp=   0.    v/deg k
     tref=  25.00   deg c 

   5*** noise parameters ***
       kf=   0.                  af=   1.00         

   ***  level   1  model parameters  ***

    level=   1.00                is=   1.00u amps         jsw=   0.    amps   
        n=   1.50               nbv=   1.50                ik=   0.    amp    
     area=   1.00                pj=   0.                 ikr=   0.    amp    
    expli=   0.    amps      explir=   0.    amps        jtun=   0.    amps   
   jtunsw=   0.    amps        ntun=  30.00         
  
 ********************************************************
 *** common model parameters model name:   0:diode_bp****
 ********************************************************

     names  values   units     names  values   units     names  values   units
     -----  ------   -----     -----  ------   -----     -----  ------   -----

   1*** dc breakdown parameters ***
       vb=   0.    volts        ibv=   1.00m amps   

   2*** parasitic resistance parameters ***
       rs=   0.    ohms   

   3*** capacitance parameters ***
       fc= 500.00m              fcs= 500.00m                m= 500.00m        
     mjsw= 330.00m               pb= 800.00m volts        php= 800.00m volts  
       tt=   0.    secs         cjo=   0.    f/area       cjp=   0.    f/pj   

   4*** temperature effect parameters ***
     tlev=   0.               tlevc=   0.                 tcv=   0.    v/deg k
      trs=   0.    /deg         cta=   0.    /deg         ctp=   0.    /deg   
      xti=   3.00            xtitun=   3.00               keg=   1.00         
       eg=   1.11  ev          gap1= 702.00u  ev/deg     gap2=   1.11k  deg   
     ttt1=   0.    /deg        ttt2=   0.    /deg2        tm1=   0.    /deg   
      tm2=   0.    /deg2        tpb=   0.    v/deg k     tphp=   0.    v/deg k
     tref=  25.00   deg c 

   5*** noise parameters ***
       kf=   0.                  af=   1.00         

   ***  level   1  model parameters  ***

    level=   1.00                is=  10.00u amps         jsw=   0.    amps   
        n=   1.00               nbv=   1.00                ik=   0.    amp    
     area=   1.00                pj=   0.                 ikr=   0.    amp    
    expli=   0.    amps      explir=   0.    amps        jtun=   0.    amps   
   jtunsw=   0.    amps        ntun=  30.00         
  
 ********************************************************
 *** common model parameters model name:   0:diode112****
 ********************************************************

     names  values   units     names  values   units     names  values   units
     -----  ------   -----     -----  ------   -----     -----  ------   -----

   1*** dc breakdown parameters ***
       vb=   0.    volts        ibv=   1.00m amps   

   2*** parasitic resistance parameters ***
       rs=   0.    ohms   

   3*** capacitance parameters ***
       fc= 500.00m              fcs= 500.00m                m= 500.00m        
     mjsw= 330.00m               pb= 800.00m volts        php= 800.00m volts  
       tt=   0.    secs         cjo=   0.    f/area       cjp=   0.    f/pj   

   4*** temperature effect parameters ***
     tlev=   0.               tlevc=   0.                 tcv=   0.    v/deg k
      trs=   0.    /deg         cta=   0.    /deg         ctp=   0.    /deg   
      xti=   3.00            xtitun=   3.00               keg=   1.00         
       eg=   1.11  ev          gap1= 702.00u  ev/deg     gap2=   1.11k  deg   
     ttt1=   0.    /deg        ttt2=   0.    /deg2        tm1=   0.    /deg   
      tm2=   0.    /deg2        tpb=   0.    v/deg k     tphp=   0.    v/deg k
     tref=  25.00   deg c 

   5*** noise parameters ***
       kf=   0.                  af=   1.00         

   ***  level   1  model parameters  ***

    level=   1.00                is=   1.00u amps         jsw=   0.    amps   
        n=  18.00               nbv=  18.00                ik=   0.    amp    
     area=   1.00                pj=   0.                 ikr=   0.    amp    
    expli=   0.    amps      explir=   0.    amps        jtun=   0.    amps   
   jtunsw=   0.    amps        ntun=  30.00         
  
 ********************************************************
 *** common model parameters model name:   0:diode12_****
 ********************************************************

     names  values   units     names  values   units     names  values   units
     -----  ------   -----     -----  ------   -----     -----  ------   -----

   1*** dc breakdown parameters ***
       vb=   0.    volts        ibv=   1.00m amps   

   2*** parasitic resistance parameters ***
       rs=   0.    ohms   

   3*** capacitance parameters ***
       fc= 500.00m              fcs= 500.00m                m= 500.00m        
     mjsw= 330.00m               pb= 800.00m volts        php= 800.00m volts  
       tt=   0.    secs         cjo=   0.    f/area       cjp=   0.    f/pj   

   4*** temperature effect parameters ***
     tlev=   0.               tlevc=   0.                 tcv=   0.    v/deg k
      trs=   0.    /deg         cta=   0.    /deg         ctp=   0.    /deg   
      xti=   3.00            xtitun=   3.00               keg=   1.00         
       eg=   1.11  ev          gap1= 702.00u  ev/deg     gap2=   1.11k  deg   
     ttt1=   0.    /deg        ttt2=   0.    /deg2        tm1=   0.    /deg   
      tm2=   0.    /deg2        tpb=   0.    v/deg k     tphp=   0.    v/deg k
     tref=  25.00   deg c 

   5*** noise parameters ***
       kf=   0.                  af=   1.00         

   ***  level   1  model parameters  ***

    level=   1.00                is=   1.00u amps         jsw=   0.    amps   
        n=   1.50               nbv=   1.50                ik=   0.    amp    
     area=   1.00                pj=   0.                 ikr=   0.    amp    
    expli=   0.    amps      explir=   0.    amps        jtun=   0.    amps   
   jtunsw=   0.    amps        ntun=  30.00         
  
 ********************************************************
 *** common model parameters model name:   0:diode12_****
 ********************************************************

     names  values   units     names  values   units     names  values   units
     -----  ------   -----     -----  ------   -----     -----  ------   -----

   1*** dc breakdown parameters ***
       vb=   0.    volts        ibv=   1.00m amps   

   2*** parasitic resistance parameters ***
       rs=   0.    ohms   

   3*** capacitance parameters ***
       fc= 500.00m              fcs= 500.00m                m= 500.00m        
     mjsw= 330.00m               pb= 800.00m volts        php= 800.00m volts  
       tt=   0.    secs         cjo=   0.    f/area       cjp=   0.    f/pj   

   4*** temperature effect parameters ***
     tlev=   0.               tlevc=   0.                 tcv=   0.    v/deg k
      trs=   0.    /deg         cta=   0.    /deg         ctp=   0.    /deg   
      xti=   3.00            xtitun=   3.00               keg=   1.00         
       eg=   1.11  ev          gap1= 702.00u  ev/deg     gap2=   1.11k  deg   
     ttt1=   0.    /deg        ttt2=   0.    /deg2        tm1=   0.    /deg   
      tm2=   0.    /deg2        tpb=   0.    v/deg k     tphp=   0.    v/deg k
     tref=  25.00   deg c 

   5*** noise parameters ***
       kf=   0.                  af=   1.00         

   ***  level   1  model parameters  ***

    level=   1.00                is=   1.00u amps         jsw=   0.    amps   
        n=   3.00               nbv=   3.00                ik=   0.    amp    
     area=   1.00                pj=   0.                 ikr=   0.    amp    
    expli=   0.    amps      explir=   0.    amps        jtun=   0.    amps   
   jtunsw=   0.    amps        ntun=  30.00         
  
 ********************************************************
 *** common model parameters model name:   0:diode_bp****
 ********************************************************

     names  values   units     names  values   units     names  values   units
     -----  ------   -----     -----  ------   -----     -----  ------   -----

   1*** dc breakdown parameters ***
       vb=   0.    volts        ibv=   1.00m amps   

   2*** parasitic resistance parameters ***
       rs=   0.    ohms   

   3*** capacitance parameters ***
       fc= 500.00m              fcs= 500.00m                m= 500.00m        
     mjsw= 330.00m               pb= 800.00m volts        php= 800.00m volts  
       tt=   0.    secs         cjo=   0.    f/area       cjp=   0.    f/pj   

   4*** temperature effect parameters ***
     tlev=   0.               tlevc=   0.                 tcv=   0.    v/deg k
      trs=   0.    /deg         cta=   0.    /deg         ctp=   0.    /deg   
      xti=   3.00            xtitun=   3.00               keg=   1.00         
       eg=   1.11  ev          gap1= 702.00u  ev/deg     gap2=   1.11k  deg   
     ttt1=   0.    /deg        ttt2=   0.    /deg2        tm1=   0.    /deg   
      tm2=   0.    /deg2        tpb=   0.    v/deg k     tphp=   0.    v/deg k
     tref=  25.00   deg c 

   5*** noise parameters ***
       kf=   0.                  af=   1.00         

   ***  level   1  model parameters  ***

    level=   1.00                is=  10.00u amps         jsw=   0.    amps   
        n=   1.00               nbv=   1.00                ik=   0.    amp    
     area=   1.00                pj=   0.                 ikr=   0.    amp    
    expli=   0.    amps      explir=   0.    amps        jtun=   0.    amps   
   jtunsw=   0.    amps        ntun=  30.00         
  
 ********************************************************
 *** common model parameters model name:   0:diode122****
 ********************************************************

     names  values   units     names  values   units     names  values   units
     -----  ------   -----     -----  ------   -----     -----  ------   -----

   1*** dc breakdown parameters ***
       vb=   0.    volts        ibv=   1.00m amps   

   2*** parasitic resistance parameters ***
       rs=   0.    ohms   

   3*** capacitance parameters ***
       fc= 500.00m              fcs= 500.00m                m= 500.00m        
     mjsw= 330.00m               pb= 800.00m volts        php= 800.00m volts  
       tt=   0.    secs         cjo=   0.    f/area       cjp=   0.    f/pj   

   4*** temperature effect parameters ***
     tlev=   0.               tlevc=   0.                 tcv=   0.    v/deg k
      trs=   0.    /deg         cta=   0.    /deg         ctp=   0.    /deg   
      xti=   3.00            xtitun=   3.00               keg=   1.00         
       eg=   1.11  ev          gap1= 702.00u  ev/deg     gap2=   1.11k  deg   
     ttt1=   0.    /deg        ttt2=   0.    /deg2        tm1=   0.    /deg   
      tm2=   0.    /deg2        tpb=   0.    v/deg k     tphp=   0.    v/deg k
     tref=  25.00   deg c 

   5*** noise parameters ***
       kf=   0.                  af=   1.00         

   ***  level   1  model parameters  ***

    level=   1.00                is=   1.00u amps         jsw=   0.    amps   
        n=  13.50               nbv=  13.50                ik=   0.    amp    
     area=   1.00                pj=   0.                 ikr=   0.    amp    
    expli=   0.    amps      explir=   0.    amps        jtun=   0.    amps   
   jtunsw=   0.    amps        ntun=  30.00         
  
 ********************************************************
 *** common model parameters model name:   0:diode22_****
 ********************************************************

     names  values   units     names  values   units     names  values   units
     -----  ------   -----     -----  ------   -----     -----  ------   -----

   1*** dc breakdown parameters ***
       vb=   0.    volts        ibv=   1.00m amps   

   2*** parasitic resistance parameters ***
       rs=   0.    ohms   

   3*** capacitance parameters ***
       fc= 500.00m              fcs= 500.00m                m= 500.00m        
     mjsw= 330.00m               pb= 800.00m volts        php= 800.00m volts  
       tt=   0.    secs         cjo=   0.    f/area       cjp=   0.    f/pj   

   4*** temperature effect parameters ***
     tlev=   0.               tlevc=   0.                 tcv=   0.    v/deg k
      trs=   0.    /deg         cta=   0.    /deg         ctp=   0.    /deg   
      xti=   3.00            xtitun=   3.00               keg=   1.00         
       eg=   1.11  ev          gap1= 702.00u  ev/deg     gap2=   1.11k  deg   
     ttt1=   0.    /deg        ttt2=   0.    /deg2        tm1=   0.    /deg   
      tm2=   0.    /deg2        tpb=   0.    v/deg k     tphp=   0.    v/deg k
     tref=  25.00   deg c 

   5*** noise parameters ***
       kf=   0.                  af=   1.00         

   ***  level   1  model parameters  ***

    level=   1.00                is=   1.00u amps         jsw=   0.    amps   
        n=   4.50               nbv=   4.50                ik=   0.    amp    
     area=   1.00                pj=   0.                 ikr=   0.    amp    
    expli=   0.    amps      explir=   0.    amps        jtun=   0.    amps   
   jtunsw=   0.    amps        ntun=  30.00         
  
 ********************************************************
 *** common model parameters model name:   0:diode22_****
 ********************************************************

     names  values   units     names  values   units     names  values   units
     -----  ------   -----     -----  ------   -----     -----  ------   -----

   1*** dc breakdown parameters ***
       vb=   0.    volts        ibv=   1.00m amps   

   2*** parasitic resistance parameters ***
       rs=   0.    ohms   

   3*** capacitance parameters ***
       fc= 500.00m              fcs= 500.00m                m= 500.00m        
     mjsw= 330.00m               pb= 800.00m volts        php= 800.00m volts  
       tt=   0.    secs         cjo=   0.    f/area       cjp=   0.    f/pj   

   4*** temperature effect parameters ***
     tlev=   0.               tlevc=   0.                 tcv=   0.    v/deg k
      trs=   0.    /deg         cta=   0.    /deg         ctp=   0.    /deg   
      xti=   3.00            xtitun=   3.00               keg=   1.00         
       eg=   1.11  ev          gap1= 702.00u  ev/deg     gap2=   1.11k  deg   
     ttt1=   0.    /deg        ttt2=   0.    /deg2        tm1=   0.    /deg   
      tm2=   0.    /deg2        tpb=   0.    v/deg k     tphp=   0.    v/deg k
     tref=  25.00   deg c 

   5*** noise parameters ***
       kf=   0.                  af=   1.00         

   ***  level   1  model parameters  ***

    level=   1.00                is=   1.00u amps         jsw=   0.    amps   
        n=   3.00               nbv=   3.00                ik=   0.    amp    
     area=   1.00                pj=   0.                 ikr=   0.    amp    
    expli=   0.    amps      explir=   0.    amps        jtun=   0.    amps   
   jtunsw=   0.    amps        ntun=  30.00         
  
 ********************************************************
 *** common model parameters model name:   0:diode22_****
 ********************************************************

     names  values   units     names  values   units     names  values   units
     -----  ------   -----     -----  ------   -----     -----  ------   -----

   1*** dc breakdown parameters ***
       vb=   0.    volts        ibv=   1.00m amps   

   2*** parasitic resistance parameters ***
       rs=   0.    ohms   

   3*** capacitance parameters ***
       fc= 500.00m              fcs= 500.00m                m= 500.00m        
     mjsw= 330.00m               pb= 800.00m volts        php= 800.00m volts  
       tt=   0.    secs         cjo=   0.    f/area       cjp=   0.    f/pj   

   4*** temperature effect parameters ***
     tlev=   0.               tlevc=   0.                 tcv=   0.    v/deg k
      trs=   0.    /deg         cta=   0.    /deg         ctp=   0.    /deg   
      xti=   3.00            xtitun=   3.00               keg=   1.00         
       eg=   1.11  ev          gap1= 702.00u  ev/deg     gap2=   1.11k  deg   
     ttt1=   0.    /deg        ttt2=   0.    /deg2        tm1=   0.    /deg   
      tm2=   0.    /deg2        tpb=   0.    v/deg k     tphp=   0.    v/deg k
     tref=  25.00   deg c 

   5*** noise parameters ***
       kf=   0.                  af=   1.00         

   ***  level   1  model parameters  ***

    level=   1.00                is=   1.00u amps         jsw=   0.    amps   
        n=   1.50               nbv=   1.50                ik=   0.    amp    
     area=   1.00                pj=   0.                 ikr=   0.    amp    
    expli=   0.    amps      explir=   0.    amps        jtun=   0.    amps   
   jtunsw=   0.    amps        ntun=  30.00         
  
 ********************************************************
 *** common model parameters model name:   0:diode_bp****
 ********************************************************

     names  values   units     names  values   units     names  values   units
     -----  ------   -----     -----  ------   -----     -----  ------   -----

   1*** dc breakdown parameters ***
       vb=   0.    volts        ibv=   1.00m amps   

   2*** parasitic resistance parameters ***
       rs=   0.    ohms   

   3*** capacitance parameters ***
       fc= 500.00m              fcs= 500.00m                m= 500.00m        
     mjsw= 330.00m               pb= 800.00m volts        php= 800.00m volts  
       tt=   0.    secs         cjo=   0.    f/area       cjp=   0.    f/pj   

   4*** temperature effect parameters ***
     tlev=   0.               tlevc=   0.                 tcv=   0.    v/deg k
      trs=   0.    /deg         cta=   0.    /deg         ctp=   0.    /deg   
      xti=   3.00            xtitun=   3.00               keg=   1.00         
       eg=   1.11  ev          gap1= 702.00u  ev/deg     gap2=   1.11k  deg   
     ttt1=   0.    /deg        ttt2=   0.    /deg2        tm1=   0.    /deg   
      tm2=   0.    /deg2        tpb=   0.    v/deg k     tphp=   0.    v/deg k
     tref=  25.00   deg c 

   5*** noise parameters ***
       kf=   0.                  af=   1.00         

   ***  level   1  model parameters  ***

    level=   1.00                is=  10.00u amps         jsw=   0.    amps   
        n=   1.00               nbv=   1.00                ik=   0.    amp    
     area=   1.00                pj=   0.                 ikr=   0.    amp    
    expli=   0.    amps      explir=   0.    amps        jtun=   0.    amps   
   jtunsw=   0.    amps        ntun=  30.00         
  
 ********************************************************
 *** common model parameters model name:   0:diode113****
 ********************************************************

     names  values   units     names  values   units     names  values   units
     -----  ------   -----     -----  ------   -----     -----  ------   -----

   1*** dc breakdown parameters ***
       vb=   0.    volts        ibv=   1.00m amps   

   2*** parasitic resistance parameters ***
       rs=   0.    ohms   

   3*** capacitance parameters ***
       fc= 500.00m              fcs= 500.00m                m= 500.00m        
     mjsw= 330.00m               pb= 800.00m volts        php= 800.00m volts  
       tt=   0.    secs         cjo=   0.    f/area       cjp=   0.    f/pj   

   4*** temperature effect parameters ***
     tlev=   0.               tlevc=   0.                 tcv=   0.    v/deg k
      trs=   0.    /deg         cta=   0.    /deg         ctp=   0.    /deg   
      xti=   3.00            xtitun=   3.00               keg=   1.00         
       eg=   1.11  ev          gap1= 702.00u  ev/deg     gap2=   1.11k  deg   
     ttt1=   0.    /deg        ttt2=   0.    /deg2        tm1=   0.    /deg   
      tm2=   0.    /deg2        tpb=   0.    v/deg k     tphp=   0.    v/deg k
     tref=  25.00   deg c 

   5*** noise parameters ***
       kf=   0.                  af=   1.00         

   ***  level   1  model parameters  ***

    level=   1.00                is=   1.00u amps         jsw=   0.    amps   
        n=  15.00               nbv=  15.00                ik=   0.    amp    
     area=   1.00                pj=   0.                 ikr=   0.    amp    
    expli=   0.    amps      explir=   0.    amps        jtun=   0.    amps   
   jtunsw=   0.    amps        ntun=  30.00         
  
 ********************************************************
 *** common model parameters model name:   0:diode13_****
 ********************************************************

     names  values   units     names  values   units     names  values   units
     -----  ------   -----     -----  ------   -----     -----  ------   -----

   1*** dc breakdown parameters ***
       vb=   0.    volts        ibv=   1.00m amps   

   2*** parasitic resistance parameters ***
       rs=   0.    ohms   

   3*** capacitance parameters ***
       fc= 500.00m              fcs= 500.00m                m= 500.00m        
     mjsw= 330.00m               pb= 800.00m volts        php= 800.00m volts  
       tt=   0.    secs         cjo=   0.    f/area       cjp=   0.    f/pj   

   4*** temperature effect parameters ***
     tlev=   0.               tlevc=   0.                 tcv=   0.    v/deg k
      trs=   0.    /deg         cta=   0.    /deg         ctp=   0.    /deg   
      xti=   3.00            xtitun=   3.00               keg=   1.00         
       eg=   1.11  ev          gap1= 702.00u  ev/deg     gap2=   1.11k  deg   
     ttt1=   0.    /deg        ttt2=   0.    /deg2        tm1=   0.    /deg   
      tm2=   0.    /deg2        tpb=   0.    v/deg k     tphp=   0.    v/deg k
     tref=  25.00   deg c 

   5*** noise parameters ***
       kf=   0.                  af=   1.00         

   ***  level   1  model parameters  ***

    level=   1.00                is=   1.00u amps         jsw=   0.    amps   
        n=   1.50               nbv=   1.50                ik=   0.    amp    
     area=   1.00                pj=   0.                 ikr=   0.    amp    
    expli=   0.    amps      explir=   0.    amps        jtun=   0.    amps   
   jtunsw=   0.    amps        ntun=  30.00         
  
 ********************************************************
 *** common model parameters model name:   0:diode13_****
 ********************************************************

     names  values   units     names  values   units     names  values   units
     -----  ------   -----     -----  ------   -----     -----  ------   -----

   1*** dc breakdown parameters ***
       vb=   0.    volts        ibv=   1.00m amps   

   2*** parasitic resistance parameters ***
       rs=   0.    ohms   

   3*** capacitance parameters ***
       fc= 500.00m              fcs= 500.00m                m= 500.00m        
     mjsw= 330.00m               pb= 800.00m volts        php= 800.00m volts  
       tt=   0.    secs         cjo=   0.    f/area       cjp=   0.    f/pj   

   4*** temperature effect parameters ***
     tlev=   0.               tlevc=   0.                 tcv=   0.    v/deg k
      trs=   0.    /deg         cta=   0.    /deg         ctp=   0.    /deg   
      xti=   3.00            xtitun=   3.00               keg=   1.00         
       eg=   1.11  ev          gap1= 702.00u  ev/deg     gap2=   1.11k  deg   
     ttt1=   0.    /deg        ttt2=   0.    /deg2        tm1=   0.    /deg   
      tm2=   0.    /deg2        tpb=   0.    v/deg k     tphp=   0.    v/deg k
     tref=  25.00   deg c 

   5*** noise parameters ***
       kf=   0.                  af=   1.00         

   ***  level   1  model parameters  ***

    level=   1.00                is=   1.00u amps         jsw=   0.    amps   
        n=   3.00               nbv=   3.00                ik=   0.    amp    
     area=   1.00                pj=   0.                 ikr=   0.    amp    
    expli=   0.    amps      explir=   0.    amps        jtun=   0.    amps   
   jtunsw=   0.    amps        ntun=  30.00         
  
 ********************************************************
 *** common model parameters model name:   0:diode13_****
 ********************************************************

     names  values   units     names  values   units     names  values   units
     -----  ------   -----     -----  ------   -----     -----  ------   -----

   1*** dc breakdown parameters ***
       vb=   0.    volts        ibv=   1.00m amps   

   2*** parasitic resistance parameters ***
       rs=   0.    ohms   

   3*** capacitance parameters ***
       fc= 500.00m              fcs= 500.00m                m= 500.00m        
     mjsw= 330.00m               pb= 800.00m volts        php= 800.00m volts  
       tt=   0.    secs         cjo=   0.    f/area       cjp=   0.    f/pj   

   4*** temperature effect parameters ***
     tlev=   0.               tlevc=   0.                 tcv=   0.    v/deg k
      trs=   0.    /deg         cta=   0.    /deg         ctp=   0.    /deg   
      xti=   3.00            xtitun=   3.00               keg=   1.00         
       eg=   1.11  ev          gap1= 702.00u  ev/deg     gap2=   1.11k  deg   
     ttt1=   0.    /deg        ttt2=   0.    /deg2        tm1=   0.    /deg   
      tm2=   0.    /deg2        tpb=   0.    v/deg k     tphp=   0.    v/deg k
     tref=  25.00   deg c 

   5*** noise parameters ***
       kf=   0.                  af=   1.00         

   ***  level   1  model parameters  ***

    level=   1.00                is=   1.00u amps         jsw=   0.    amps   
        n=   3.00               nbv=   3.00                ik=   0.    amp    
     area=   1.00                pj=   0.                 ikr=   0.    amp    
    expli=   0.    amps      explir=   0.    amps        jtun=   0.    amps   
   jtunsw=   0.    amps        ntun=  30.00         
  
 ********************************************************
 *** common model parameters model name:   0:diode_bp****
 ********************************************************

     names  values   units     names  values   units     names  values   units
     -----  ------   -----     -----  ------   -----     -----  ------   -----

   1*** dc breakdown parameters ***
       vb=   0.    volts        ibv=   1.00m amps   

   2*** parasitic resistance parameters ***
       rs=   0.    ohms   

   3*** capacitance parameters ***
       fc= 500.00m              fcs= 500.00m                m= 500.00m        
     mjsw= 330.00m               pb= 800.00m volts        php= 800.00m volts  
       tt=   0.    secs         cjo=   0.    f/area       cjp=   0.    f/pj   

   4*** temperature effect parameters ***
     tlev=   0.               tlevc=   0.                 tcv=   0.    v/deg k
      trs=   0.    /deg         cta=   0.    /deg         ctp=   0.    /deg   
      xti=   3.00            xtitun=   3.00               keg=   1.00         
       eg=   1.11  ev          gap1= 702.00u  ev/deg     gap2=   1.11k  deg   
     ttt1=   0.    /deg        ttt2=   0.    /deg2        tm1=   0.    /deg   
      tm2=   0.    /deg2        tpb=   0.    v/deg k     tphp=   0.    v/deg k
     tref=  25.00   deg c 

   5*** noise parameters ***
       kf=   0.                  af=   1.00         

   ***  level   1  model parameters  ***

    level=   1.00                is=  10.00u amps         jsw=   0.    amps   
        n=   1.00               nbv=   1.00                ik=   0.    amp    
     area=   1.00                pj=   0.                 ikr=   0.    amp    
    expli=   0.    amps      explir=   0.    amps        jtun=   0.    amps   
   jtunsw=   0.    amps        ntun=  30.00         
  
 ********************************************************
 *** common model parameters model name:   0:diode132****
 ********************************************************

     names  values   units     names  values   units     names  values   units
     -----  ------   -----     -----  ------   -----     -----  ------   -----

   1*** dc breakdown parameters ***
       vb=   0.    volts        ibv=   1.00m amps   

   2*** parasitic resistance parameters ***
       rs=   0.    ohms   

   3*** capacitance parameters ***
       fc= 500.00m              fcs= 500.00m                m= 500.00m        
     mjsw= 330.00m               pb= 800.00m volts        php= 800.00m volts  
       tt=   0.    secs         cjo=   0.    f/area       cjp=   0.    f/pj   

   4*** temperature effect parameters ***
     tlev=   0.               tlevc=   0.                 tcv=   0.    v/deg k
      trs=   0.    /deg         cta=   0.    /deg         ctp=   0.    /deg   
      xti=   3.00            xtitun=   3.00               keg=   1.00         
       eg=   1.11  ev          gap1= 702.00u  ev/deg     gap2=   1.11k  deg   
     ttt1=   0.    /deg        ttt2=   0.    /deg2        tm1=   0.    /deg   
      tm2=   0.    /deg2        tpb=   0.    v/deg k     tphp=   0.    v/deg k
     tref=  25.00   deg c 

   5*** noise parameters ***
       kf=   0.                  af=   1.00         

   ***  level   1  model parameters  ***

    level=   1.00                is=   1.00u amps         jsw=   0.    amps   
        n=  13.50               nbv=  13.50                ik=   0.    amp    
     area=   1.00                pj=   0.                 ikr=   0.    amp    
    expli=   0.    amps      explir=   0.    amps        jtun=   0.    amps   
   jtunsw=   0.    amps        ntun=  30.00         
  
 ********************************************************
 *** common model parameters model name:   0:diode23_****
 ********************************************************

     names  values   units     names  values   units     names  values   units
     -----  ------   -----     -----  ------   -----     -----  ------   -----

   1*** dc breakdown parameters ***
       vb=   0.    volts        ibv=   1.00m amps   

   2*** parasitic resistance parameters ***
       rs=   0.    ohms   

   3*** capacitance parameters ***
       fc= 500.00m              fcs= 500.00m                m= 500.00m        
     mjsw= 330.00m               pb= 800.00m volts        php= 800.00m volts  
       tt=   0.    secs         cjo=   0.    f/area       cjp=   0.    f/pj   

   4*** temperature effect parameters ***
     tlev=   0.               tlevc=   0.                 tcv=   0.    v/deg k
      trs=   0.    /deg         cta=   0.    /deg         ctp=   0.    /deg   
      xti=   3.00            xtitun=   3.00               keg=   1.00         
       eg=   1.11  ev          gap1= 702.00u  ev/deg     gap2=   1.11k  deg   
     ttt1=   0.    /deg        ttt2=   0.    /deg2        tm1=   0.    /deg   
      tm2=   0.    /deg2        tpb=   0.    v/deg k     tphp=   0.    v/deg k
     tref=  25.00   deg c 

   5*** noise parameters ***
       kf=   0.                  af=   1.00         

   ***  level   1  model parameters  ***

    level=   1.00                is=   1.00u amps         jsw=   0.    amps   
        n=   6.00               nbv=   6.00                ik=   0.    amp    
     area=   1.00                pj=   0.                 ikr=   0.    amp    
    expli=   0.    amps      explir=   0.    amps        jtun=   0.    amps   
   jtunsw=   0.    amps        ntun=  30.00         
  
 ********************************************************
 *** common model parameters model name:   0:diode23_****
 ********************************************************

     names  values   units     names  values   units     names  values   units
     -----  ------   -----     -----  ------   -----     -----  ------   -----

   1*** dc breakdown parameters ***
       vb=   0.    volts        ibv=   1.00m amps   

   2*** parasitic resistance parameters ***
       rs=   0.    ohms   

   3*** capacitance parameters ***
       fc= 500.00m              fcs= 500.00m                m= 500.00m        
     mjsw= 330.00m               pb= 800.00m volts        php= 800.00m volts  
       tt=   0.    secs         cjo=   0.    f/area       cjp=   0.    f/pj   

   4*** temperature effect parameters ***
     tlev=   0.               tlevc=   0.                 tcv=   0.    v/deg k
      trs=   0.    /deg         cta=   0.    /deg         ctp=   0.    /deg   
      xti=   3.00            xtitun=   3.00               keg=   1.00         
       eg=   1.11  ev          gap1= 702.00u  ev/deg     gap2=   1.11k  deg   
     ttt1=   0.    /deg        ttt2=   0.    /deg2        tm1=   0.    /deg   
      tm2=   0.    /deg2        tpb=   0.    v/deg k     tphp=   0.    v/deg k
     tref=  25.00   deg c 

   5*** noise parameters ***
       kf=   0.                  af=   1.00         

   ***  level   1  model parameters  ***

    level=   1.00                is=   1.00u amps         jsw=   0.    amps   
        n=   1.50               nbv=   1.50                ik=   0.    amp    
     area=   1.00                pj=   0.                 ikr=   0.    amp    
    expli=   0.    amps      explir=   0.    amps        jtun=   0.    amps   
   jtunsw=   0.    amps        ntun=  30.00         
  
 ********************************************************
 *** common model parameters model name:   0:diode23_****
 ********************************************************

     names  values   units     names  values   units     names  values   units
     -----  ------   -----     -----  ------   -----     -----  ------   -----

   1*** dc breakdown parameters ***
       vb=   0.    volts        ibv=   1.00m amps   

   2*** parasitic resistance parameters ***
       rs=   0.    ohms   

   3*** capacitance parameters ***
       fc= 500.00m              fcs= 500.00m                m= 500.00m        
     mjsw= 330.00m               pb= 800.00m volts        php= 800.00m volts  
       tt=   0.    secs         cjo=   0.    f/area       cjp=   0.    f/pj   

   4*** temperature effect parameters ***
     tlev=   0.               tlevc=   0.                 tcv=   0.    v/deg k
      trs=   0.    /deg         cta=   0.    /deg         ctp=   0.    /deg   
      xti=   3.00            xtitun=   3.00               keg=   1.00         
       eg=   1.11  ev          gap1= 702.00u  ev/deg     gap2=   1.11k  deg   
     ttt1=   0.    /deg        ttt2=   0.    /deg2        tm1=   0.    /deg   
      tm2=   0.    /deg2        tpb=   0.    v/deg k     tphp=   0.    v/deg k
     tref=  25.00   deg c 

   5*** noise parameters ***
       kf=   0.                  af=   1.00         

   ***  level   1  model parameters  ***

    level=   1.00                is=   1.00u amps         jsw=   0.    amps   
        n=   1.50               nbv=   1.50                ik=   0.    amp    
     area=   1.00                pj=   0.                 ikr=   0.    amp    
    expli=   0.    amps      explir=   0.    amps        jtun=   0.    amps   
   jtunsw=   0.    amps        ntun=  30.00         
  
 ********************************************************
 *** common model parameters model name:   0:diode_bp****
 ********************************************************

     names  values   units     names  values   units     names  values   units
     -----  ------   -----     -----  ------   -----     -----  ------   -----

   1*** dc breakdown parameters ***
       vb=   0.    volts        ibv=   1.00m amps   

   2*** parasitic resistance parameters ***
       rs=   0.    ohms   

   3*** capacitance parameters ***
       fc= 500.00m              fcs= 500.00m                m= 500.00m        
     mjsw= 330.00m               pb= 800.00m volts        php= 800.00m volts  
       tt=   0.    secs         cjo=   0.    f/area       cjp=   0.    f/pj   

   4*** temperature effect parameters ***
     tlev=   0.               tlevc=   0.                 tcv=   0.    v/deg k
      trs=   0.    /deg         cta=   0.    /deg         ctp=   0.    /deg   
      xti=   3.00            xtitun=   3.00               keg=   1.00         
       eg=   1.11  ev          gap1= 702.00u  ev/deg     gap2=   1.11k  deg   
     ttt1=   0.    /deg        ttt2=   0.    /deg2        tm1=   0.    /deg   
      tm2=   0.    /deg2        tpb=   0.    v/deg k     tphp=   0.    v/deg k
     tref=  25.00   deg c 

   5*** noise parameters ***
       kf=   0.                  af=   1.00         

   ***  level   1  model parameters  ***

    level=   1.00                is=  10.00u amps         jsw=   0.    amps   
        n=   1.00               nbv=   1.00                ik=   0.    amp    
     area=   1.00                pj=   0.                 ikr=   0.    amp    
    expli=   0.    amps      explir=   0.    amps        jtun=   0.    amps   
   jtunsw=   0.    amps        ntun=  30.00         
  
 ********************************************************
 *** common model parameters model name:   0:diode114****
 ********************************************************

     names  values   units     names  values   units     names  values   units
     -----  ------   -----     -----  ------   -----     -----  ------   -----

   1*** dc breakdown parameters ***
       vb=   0.    volts        ibv=   1.00m amps   

   2*** parasitic resistance parameters ***
       rs=   0.    ohms   

   3*** capacitance parameters ***
       fc= 500.00m              fcs= 500.00m                m= 500.00m        
     mjsw= 330.00m               pb= 800.00m volts        php= 800.00m volts  
       tt=   0.    secs         cjo=   0.    f/area       cjp=   0.    f/pj   

   4*** temperature effect parameters ***
     tlev=   0.               tlevc=   0.                 tcv=   0.    v/deg k
      trs=   0.    /deg         cta=   0.    /deg         ctp=   0.    /deg   
      xti=   3.00            xtitun=   3.00               keg=   1.00         
       eg=   1.11  ev          gap1= 702.00u  ev/deg     gap2=   1.11k  deg   
     ttt1=   0.    /deg        ttt2=   0.    /deg2        tm1=   0.    /deg   
      tm2=   0.    /deg2        tpb=   0.    v/deg k     tphp=   0.    v/deg k
     tref=  25.00   deg c 

   5*** noise parameters ***
       kf=   0.                  af=   1.00         

   ***  level   1  model parameters  ***

    level=   1.00                is=   1.00u amps         jsw=   0.    amps   
        n=  16.50               nbv=  16.50                ik=   0.    amp    
     area=   1.00                pj=   0.                 ikr=   0.    amp    
    expli=   0.    amps      explir=   0.    amps        jtun=   0.    amps   
   jtunsw=   0.    amps        ntun=  30.00         
  
 ********************************************************
 *** common model parameters model name:   0:diode14_****
 ********************************************************

     names  values   units     names  values   units     names  values   units
     -----  ------   -----     -----  ------   -----     -----  ------   -----

   1*** dc breakdown parameters ***
       vb=   0.    volts        ibv=   1.00m amps   

   2*** parasitic resistance parameters ***
       rs=   0.    ohms   

   3*** capacitance parameters ***
       fc= 500.00m              fcs= 500.00m                m= 500.00m        
     mjsw= 330.00m               pb= 800.00m volts        php= 800.00m volts  
       tt=   0.    secs         cjo=   0.    f/area       cjp=   0.    f/pj   

   4*** temperature effect parameters ***
     tlev=   0.               tlevc=   0.                 tcv=   0.    v/deg k
      trs=   0.    /deg         cta=   0.    /deg         ctp=   0.    /deg   
      xti=   3.00            xtitun=   3.00               keg=   1.00         
       eg=   1.11  ev          gap1= 702.00u  ev/deg     gap2=   1.11k  deg   
     ttt1=   0.    /deg        ttt2=   0.    /deg2        tm1=   0.    /deg   
      tm2=   0.    /deg2        tpb=   0.    v/deg k     tphp=   0.    v/deg k
     tref=  25.00   deg c 

   5*** noise parameters ***
       kf=   0.                  af=   1.00         

   ***  level   1  model parameters  ***

    level=   1.00                is=   1.00u amps         jsw=   0.    amps   
        n=   4.50               nbv=   4.50                ik=   0.    amp    
     area=   1.00                pj=   0.                 ikr=   0.    amp    
    expli=   0.    amps      explir=   0.    amps        jtun=   0.    amps   
   jtunsw=   0.    amps        ntun=  30.00         
  
 ********************************************************
 *** common model parameters model name:   0:diode14_****
 ********************************************************

     names  values   units     names  values   units     names  values   units
     -----  ------   -----     -----  ------   -----     -----  ------   -----

   1*** dc breakdown parameters ***
       vb=   0.    volts        ibv=   1.00m amps   

   2*** parasitic resistance parameters ***
       rs=   0.    ohms   

   3*** capacitance parameters ***
       fc= 500.00m              fcs= 500.00m                m= 500.00m        
     mjsw= 330.00m               pb= 800.00m volts        php= 800.00m volts  
       tt=   0.    secs         cjo=   0.    f/area       cjp=   0.    f/pj   

   4*** temperature effect parameters ***
     tlev=   0.               tlevc=   0.                 tcv=   0.    v/deg k
      trs=   0.    /deg         cta=   0.    /deg         ctp=   0.    /deg   
      xti=   3.00            xtitun=   3.00               keg=   1.00         
       eg=   1.11  ev          gap1= 702.00u  ev/deg     gap2=   1.11k  deg   
     ttt1=   0.    /deg        ttt2=   0.    /deg2        tm1=   0.    /deg   
      tm2=   0.    /deg2        tpb=   0.    v/deg k     tphp=   0.    v/deg k
     tref=  25.00   deg c 

   5*** noise parameters ***
       kf=   0.                  af=   1.00         

   ***  level   1  model parameters  ***

    level=   1.00                is=   1.00u amps         jsw=   0.    amps   
        n=   1.50               nbv=   1.50                ik=   0.    amp    
     area=   1.00                pj=   0.                 ikr=   0.    amp    
    expli=   0.    amps      explir=   0.    amps        jtun=   0.    amps   
   jtunsw=   0.    amps        ntun=  30.00         
  
 ********************************************************
 *** common model parameters model name:   0:diode_bp****
 ********************************************************

     names  values   units     names  values   units     names  values   units
     -----  ------   -----     -----  ------   -----     -----  ------   -----

   1*** dc breakdown parameters ***
       vb=   0.    volts        ibv=   1.00m amps   

   2*** parasitic resistance parameters ***
       rs=   0.    ohms   

   3*** capacitance parameters ***
       fc= 500.00m              fcs= 500.00m                m= 500.00m        
     mjsw= 330.00m               pb= 800.00m volts        php= 800.00m volts  
       tt=   0.    secs         cjo=   0.    f/area       cjp=   0.    f/pj   

   4*** temperature effect parameters ***
     tlev=   0.               tlevc=   0.                 tcv=   0.    v/deg k
      trs=   0.    /deg         cta=   0.    /deg         ctp=   0.    /deg   
      xti=   3.00            xtitun=   3.00               keg=   1.00         
       eg=   1.11  ev          gap1= 702.00u  ev/deg     gap2=   1.11k  deg   
     ttt1=   0.    /deg        ttt2=   0.    /deg2        tm1=   0.    /deg   
      tm2=   0.    /deg2        tpb=   0.    v/deg k     tphp=   0.    v/deg k
     tref=  25.00   deg c 

   5*** noise parameters ***
       kf=   0.                  af=   1.00         

   ***  level   1  model parameters  ***

    level=   1.00                is=  10.00u amps         jsw=   0.    amps   
        n=   1.00               nbv=   1.00                ik=   0.    amp    
     area=   1.00                pj=   0.                 ikr=   0.    amp    
    expli=   0.    amps      explir=   0.    amps        jtun=   0.    amps   
   jtunsw=   0.    amps        ntun=  30.00         
  
 ********************************************************
 *** common model parameters model name:   0:diode142****
 ********************************************************

     names  values   units     names  values   units     names  values   units
     -----  ------   -----     -----  ------   -----     -----  ------   -----

   1*** dc breakdown parameters ***
       vb=   0.    volts        ibv=   1.00m amps   

   2*** parasitic resistance parameters ***
       rs=   0.    ohms   

   3*** capacitance parameters ***
       fc= 500.00m              fcs= 500.00m                m= 500.00m        
     mjsw= 330.00m               pb= 800.00m volts        php= 800.00m volts  
       tt=   0.    secs         cjo=   0.    f/area       cjp=   0.    f/pj   

   4*** temperature effect parameters ***
     tlev=   0.               tlevc=   0.                 tcv=   0.    v/deg k
      trs=   0.    /deg         cta=   0.    /deg         ctp=   0.    /deg   
      xti=   3.00            xtitun=   3.00               keg=   1.00         
       eg=   1.11  ev          gap1= 702.00u  ev/deg     gap2=   1.11k  deg   
     ttt1=   0.    /deg        ttt2=   0.    /deg2        tm1=   0.    /deg   
      tm2=   0.    /deg2        tpb=   0.    v/deg k     tphp=   0.    v/deg k
     tref=  25.00   deg c 

   5*** noise parameters ***
       kf=   0.                  af=   1.00         

   ***  level   1  model parameters  ***

    level=   1.00                is=   1.00u amps         jsw=   0.    amps   
        n=  15.00               nbv=  15.00                ik=   0.    amp    
     area=   1.00                pj=   0.                 ikr=   0.    amp    
    expli=   0.    amps      explir=   0.    amps        jtun=   0.    amps   
   jtunsw=   0.    amps        ntun=  30.00         
  
 ********************************************************
 *** common model parameters model name:   0:diode24_****
 ********************************************************

     names  values   units     names  values   units     names  values   units
     -----  ------   -----     -----  ------   -----     -----  ------   -----

   1*** dc breakdown parameters ***
       vb=   0.    volts        ibv=   1.00m amps   

   2*** parasitic resistance parameters ***
       rs=   0.    ohms   

   3*** capacitance parameters ***
       fc= 500.00m              fcs= 500.00m                m= 500.00m        
     mjsw= 330.00m               pb= 800.00m volts        php= 800.00m volts  
       tt=   0.    secs         cjo=   0.    f/area       cjp=   0.    f/pj   

   4*** temperature effect parameters ***
     tlev=   0.               tlevc=   0.                 tcv=   0.    v/deg k
      trs=   0.    /deg         cta=   0.    /deg         ctp=   0.    /deg   
      xti=   3.00            xtitun=   3.00               keg=   1.00         
       eg=   1.11  ev          gap1= 702.00u  ev/deg     gap2=   1.11k  deg   
     ttt1=   0.    /deg        ttt2=   0.    /deg2        tm1=   0.    /deg   
      tm2=   0.    /deg2        tpb=   0.    v/deg k     tphp=   0.    v/deg k
     tref=  25.00   deg c 

   5*** noise parameters ***
       kf=   0.                  af=   1.00         

   ***  level   1  model parameters  ***

    level=   1.00                is=   1.00u amps         jsw=   0.    amps   
        n=   4.50               nbv=   4.50                ik=   0.    amp    
     area=   1.00                pj=   0.                 ikr=   0.    amp    
    expli=   0.    amps      explir=   0.    amps        jtun=   0.    amps   
   jtunsw=   0.    amps        ntun=  30.00         
  
 ********************************************************
 *** common model parameters model name:   0:diode24_****
 ********************************************************

     names  values   units     names  values   units     names  values   units
     -----  ------   -----     -----  ------   -----     -----  ------   -----

   1*** dc breakdown parameters ***
       vb=   0.    volts        ibv=   1.00m amps   

   2*** parasitic resistance parameters ***
       rs=   0.    ohms   

   3*** capacitance parameters ***
       fc= 500.00m              fcs= 500.00m                m= 500.00m        
     mjsw= 330.00m               pb= 800.00m volts        php= 800.00m volts  
       tt=   0.    secs         cjo=   0.    f/area       cjp=   0.    f/pj   

   4*** temperature effect parameters ***
     tlev=   0.               tlevc=   0.                 tcv=   0.    v/deg k
      trs=   0.    /deg         cta=   0.    /deg         ctp=   0.    /deg   
      xti=   3.00            xtitun=   3.00               keg=   1.00         
       eg=   1.11  ev          gap1= 702.00u  ev/deg     gap2=   1.11k  deg   
     ttt1=   0.    /deg        ttt2=   0.    /deg2        tm1=   0.    /deg   
      tm2=   0.    /deg2        tpb=   0.    v/deg k     tphp=   0.    v/deg k
     tref=  25.00   deg c 

   5*** noise parameters ***
       kf=   0.                  af=   1.00         

   ***  level   1  model parameters  ***

    level=   1.00                is=   1.00u amps         jsw=   0.    amps   
        n=   1.50               nbv=   1.50                ik=   0.    amp    
     area=   1.00                pj=   0.                 ikr=   0.    amp    
    expli=   0.    amps      explir=   0.    amps        jtun=   0.    amps   
   jtunsw=   0.    amps        ntun=  30.00         
  
 ********************************************************
 *** common model parameters model name:   0:diode24_****
 ********************************************************

     names  values   units     names  values   units     names  values   units
     -----  ------   -----     -----  ------   -----     -----  ------   -----

   1*** dc breakdown parameters ***
       vb=   0.    volts        ibv=   1.00m amps   

   2*** parasitic resistance parameters ***
       rs=   0.    ohms   

   3*** capacitance parameters ***
       fc= 500.00m              fcs= 500.00m                m= 500.00m        
     mjsw= 330.00m               pb= 800.00m volts        php= 800.00m volts  
       tt=   0.    secs         cjo=   0.    f/area       cjp=   0.    f/pj   

   4*** temperature effect parameters ***
     tlev=   0.               tlevc=   0.                 tcv=   0.    v/deg k
      trs=   0.    /deg         cta=   0.    /deg         ctp=   0.    /deg   
      xti=   3.00            xtitun=   3.00               keg=   1.00         
       eg=   1.11  ev          gap1= 702.00u  ev/deg     gap2=   1.11k  deg   
     ttt1=   0.    /deg        ttt2=   0.    /deg2        tm1=   0.    /deg   
      tm2=   0.    /deg2        tpb=   0.    v/deg k     tphp=   0.    v/deg k
     tref=  25.00   deg c 

   5*** noise parameters ***
       kf=   0.                  af=   1.00         

   ***  level   1  model parameters  ***

    level=   1.00                is=   1.00u amps         jsw=   0.    amps   
        n=   1.50               nbv=   1.50                ik=   0.    amp    
     area=   1.00                pj=   0.                 ikr=   0.    amp    
    expli=   0.    amps      explir=   0.    amps        jtun=   0.    amps   
   jtunsw=   0.    amps        ntun=  30.00         
  
 ********************************************************
 *** common model parameters model name:   0:diode_bp****
 ********************************************************

     names  values   units     names  values   units     names  values   units
     -----  ------   -----     -----  ------   -----     -----  ------   -----

   1*** dc breakdown parameters ***
       vb=   0.    volts        ibv=   1.00m amps   

   2*** parasitic resistance parameters ***
       rs=   0.    ohms   

   3*** capacitance parameters ***
       fc= 500.00m              fcs= 500.00m                m= 500.00m        
     mjsw= 330.00m               pb= 800.00m volts        php= 800.00m volts  
       tt=   0.    secs         cjo=   0.    f/area       cjp=   0.    f/pj   

   4*** temperature effect parameters ***
     tlev=   0.               tlevc=   0.                 tcv=   0.    v/deg k
      trs=   0.    /deg         cta=   0.    /deg         ctp=   0.    /deg   
      xti=   3.00            xtitun=   3.00               keg=   1.00         
       eg=   1.11  ev          gap1= 702.00u  ev/deg     gap2=   1.11k  deg   
     ttt1=   0.    /deg        ttt2=   0.    /deg2        tm1=   0.    /deg   
      tm2=   0.    /deg2        tpb=   0.    v/deg k     tphp=   0.    v/deg k
     tref=  25.00   deg c 

   5*** noise parameters ***
       kf=   0.                  af=   1.00         

   ***  level   1  model parameters  ***

    level=   1.00                is=  10.00u amps         jsw=   0.    amps   
        n=   1.00               nbv=   1.00                ik=   0.    amp    
     area=   1.00                pj=   0.                 ikr=   0.    amp    
    expli=   0.    amps      explir=   0.    amps        jtun=   0.    amps   
   jtunsw=   0.    amps        ntun=  30.00         
  
  **warning** (C:\Users\Administrator\Desktop\MultiLevel\cwModel.sp:12) r11_111_2defined in subckt 0                resistance limited to   1.000E-05
 
      
 *****************************************************************
 ******  option summary
 ******
 runlvl  = 3         bypass  = 2         
 ******  
 ** 30 cascaded, 4 paralleled cells

  ******  dc transfer curves tnom=  25.000 temp=  25.000 *****
x

        volt    voltage      current    
                     1           vds    
    0.            0.           8.0059   
    5.00000m      5.0000m      8.0059   
   10.00000m     10.0000m      8.0059   
   15.00000m     15.0000m      8.0059   
   20.00000m     20.0000m      8.0059   
   25.00000m     25.0000m      8.0059   
   30.00000m     30.0000m      8.0059   
   35.00000m     35.0000m      8.0059   
   40.00000m     40.0000m      8.0059   
   45.00000m     45.0000m      8.0059   
   50.00000m     50.0000m      8.0059   
   55.00000m     55.0000m      8.0059   
   60.00000m     60.0000m      8.0059   
   65.00000m     65.0000m      8.0059   
   70.00000m     70.0000m      8.0059   
   75.00000m     75.0000m      8.0059   
   80.00000m     80.0000m      8.0058   
   85.00000m     85.0000m      8.0058   
   90.00000m     90.0000m      8.0058   
   95.00000m     95.0000m      8.0058   
  100.00000m    100.0000m      8.0058   
  105.00000m    105.0000m      8.0058   
  110.00000m    110.0000m      8.0058   
  115.00000m    115.0000m      8.0058   
  120.00000m    120.0000m      8.0058   
  125.00000m    125.0000m      8.0058   
  130.00000m    130.0000m      8.0058   
  135.00000m    135.0000m      8.0058   
  140.00000m    140.0000m      8.0058   
  145.00000m    145.0000m      8.0058   
  150.00000m    150.0000m      8.0058   
  155.00000m    155.0000m      8.0058   
  160.00000m    160.0000m      8.0058   
  165.00000m    165.0000m      8.0058   
  170.00000m    170.0000m      8.0058   
  175.00000m    175.0000m      8.0058   
  180.00000m    180.0000m      8.0058   
  185.00000m    185.0000m      8.0058   
  190.00000m    190.0000m      8.0058   
  195.00000m    195.0000m      8.0058   
  200.00000m    200.0000m      8.0058   
  205.00000m    205.0000m      8.0058   
  210.00000m    210.0000m      8.0058   
  215.00000m    215.0000m      8.0058   
  220.00000m    220.0000m      8.0057   
  225.00000m    225.0000m      8.0057   
  230.00000m    230.0000m      8.0057   
  235.00000m    235.0000m      8.0057   
  240.00000m    240.0000m      8.0057   
  245.00000m    245.0000m      8.0057   
  250.00000m    250.0000m      8.0057   
  255.00000m    255.0000m      8.0057   
  260.00000m    260.0000m      8.0057   
  265.00000m    265.0000m      8.0057   
  270.00000m    270.0000m      8.0057   
  275.00000m    275.0000m      8.0057   
  280.00000m    280.0000m      8.0057   
  285.00000m    285.0000m      8.0057   
  290.00000m    290.0000m      8.0057   
  295.00000m    295.0000m      8.0057   
  300.00000m    300.0000m      8.0057   
  305.00000m    305.0000m      8.0057   
  310.00000m    310.0000m      8.0057   
  315.00000m    315.0000m      8.0057   
  320.00000m    320.0000m      8.0057   
  325.00000m    325.0000m      8.0057   
  330.00000m    330.0000m      8.0057   
  335.00000m    335.0000m      8.0057   
  340.00000m    340.0000m      8.0057   
  345.00000m    345.0000m      8.0057   
  350.00000m    350.0000m      8.0057   
  355.00000m    355.0000m      8.0057   
  360.00000m    360.0000m      8.0057   
  365.00000m    365.0000m      8.0056   
  370.00000m    370.0000m      8.0056   
  375.00000m    375.0000m      8.0056   
  380.00000m    380.0000m      8.0056   
  385.00000m    385.0000m      8.0056   
  390.00000m    390.0000m      8.0056   
  395.00000m    395.0000m      8.0056   
  400.00000m    400.0000m      8.0056   
  405.00000m    405.0000m      8.0056   
  410.00000m    410.0000m      8.0056   
  415.00000m    415.0000m      8.0056   
  420.00000m    420.0000m      8.0056   
  425.00000m    425.0000m      8.0056   
  430.00000m    430.0000m      8.0056   
  435.00000m    435.0000m      8.0056   
  440.00000m    440.0000m      8.0056   
  445.00000m    445.0000m      8.0056   
  450.00000m    450.0000m      8.0056   
  455.00000m    455.0000m      8.0056   
  460.00000m    460.0000m      8.0056   
  465.00000m    465.0000m      8.0056   
  470.00000m    470.0000m      8.0056   
  475.00000m    475.0000m      8.0056   
  480.00000m    480.0000m      8.0056   
  485.00000m    485.0000m      8.0056   
  490.00000m    490.0000m      8.0056   
  495.00000m    495.0000m      8.0056   
  500.00000m    500.0000m      8.0056   
  505.00000m    505.0000m      8.0055   
  510.00000m    510.0000m      8.0055   
  515.00000m    515.0000m      8.0055   
  520.00000m    520.0000m      8.0055   
  525.00000m    525.0000m      8.0055   
  530.00000m    530.0000m      8.0055   
  535.00000m    535.0000m      8.0055   
  540.00000m    540.0000m      8.0055   
  545.00000m    545.0000m      8.0055   
  550.00000m    550.0000m      8.0055   
  555.00000m    555.0000m      8.0055   
  560.00000m    560.0000m      8.0055   
  565.00000m    565.0000m      8.0055   
  570.00000m    570.0000m      8.0055   
  575.00000m    575.0000m      8.0055   
  580.00000m    580.0000m      8.0055   
  585.00000m    585.0000m      8.0055   
  590.00000m    590.0000m      8.0055   
  595.00000m    595.0000m      8.0055   
  600.00000m    600.0000m      8.0055   
  605.00000m    605.0000m      8.0055   
  610.00000m    610.0000m      8.0055   
  615.00000m    615.0000m      8.0055   
  620.00000m    620.0000m      8.0055   
  625.00000m    625.0000m      8.0055   
  630.00000m    630.0000m      8.0055   
  635.00000m    635.0000m      8.0055   
  640.00000m    640.0000m      8.0055   
  645.00000m    645.0000m      8.0055   
  650.00000m    650.0000m      8.0054   
  655.00000m    655.0000m      8.0054   
  660.00000m    660.0000m      8.0054   
  665.00000m    665.0000m      8.0054   
  670.00000m    670.0000m      8.0054   
  675.00000m    675.0000m      8.0054   
  680.00000m    680.0000m      8.0054   
  685.00000m    685.0000m      8.0054   
  690.00000m    690.0000m      8.0054   
  695.00000m    695.0000m      8.0054   
  700.00000m    700.0000m      8.0054   
  705.00000m    705.0000m      8.0054   
  710.00000m    710.0000m      8.0054   
  715.00000m    715.0000m      8.0054   
  720.00000m    720.0000m      8.0054   
  725.00000m    725.0000m      8.0054   
  730.00000m    730.0000m      8.0054   
  735.00000m    735.0000m      8.0054   
  740.00000m    740.0000m      8.0054   
  745.00000m    745.0000m      8.0054   
  750.00000m    750.0000m      8.0054   
  755.00000m    755.0000m      8.0054   
  760.00000m    760.0000m      8.0054   
  765.00000m    765.0000m      8.0054   
  770.00000m    770.0000m      8.0054   
  775.00000m    775.0000m      8.0054   
  780.00000m    780.0000m      8.0054   
  785.00000m    785.0000m      8.0054   
  790.00000m    790.0000m      8.0054   
  795.00000m    795.0000m      8.0053   
  800.00000m    800.0000m      8.0053   
  805.00000m    805.0000m      8.0053   
  810.00000m    810.0000m      8.0053   
  815.00000m    815.0000m      8.0053   
  820.00000m    820.0000m      8.0053   
  825.00000m    825.0000m      8.0053   
  830.00000m    830.0000m      8.0053   
  835.00000m    835.0000m      8.0053   
  840.00000m    840.0000m      8.0053   
  845.00000m    845.0000m      8.0053   
  850.00000m    850.0000m      8.0053   
  855.00000m    855.0000m      8.0053   
  860.00000m    860.0000m      8.0053   
  865.00000m    865.0000m      8.0053   
  870.00000m    870.0000m      8.0053   
  875.00000m    875.0000m      8.0053   
  880.00000m    880.0000m      8.0053   
  885.00000m    885.0000m      8.0053   
  890.00000m    890.0000m      8.0053   
  895.00000m    895.0000m      8.0053   
  900.00000m    900.0000m      8.0053   
  905.00000m    905.0000m      8.0053   
  910.00000m    910.0000m      8.0053   
  915.00000m    915.0000m      8.0053   
  920.00000m    920.0000m      8.0053   
  925.00000m    925.0000m      8.0053   
  930.00000m    930.0000m      8.0053   
  935.00000m    935.0000m      8.0053   
  940.00000m    940.0000m      8.0052   
  945.00000m    945.0000m      8.0052   
  950.00000m    950.0000m      8.0052   
  955.00000m    955.0000m      8.0052   
  960.00000m    960.0000m      8.0052   
  965.00000m    965.0000m      8.0052   
  970.00000m    970.0000m      8.0052   
  975.00000m    975.0000m      8.0052   
  980.00000m    980.0000m      8.0052   
  985.00000m    985.0000m      8.0052   
  990.00000m    990.0000m      8.0052   
  995.00000m    995.0000m      8.0052   
    1.00000       1.0000       8.0052   
    1.00500       1.0050       8.0052   
    1.01000       1.0100       8.0052   
    1.01500       1.0150       8.0052   
    1.02000       1.0200       8.0052   
    1.02500       1.0250       8.0052   
    1.03000       1.0300       8.0052   
    1.03500       1.0350       8.0052   
    1.04000       1.0400       8.0052   
    1.04500       1.0450       8.0052   
    1.05000       1.0500       8.0052   
    1.05500       1.0550       8.0052   
    1.06000       1.0600       8.0052   
    1.06500       1.0650       8.0052   
    1.07000       1.0700       8.0052   
    1.07500       1.0750       8.0052   
    1.08000       1.0800       8.0051   
    1.08500       1.0850       8.0051   
    1.09000       1.0900       8.0051   
    1.09500       1.0950       8.0051   
    1.10000       1.1000       8.0051   
    1.10500       1.1050       8.0051   
    1.11000       1.1100       8.0051   
    1.11500       1.1150       8.0051   
    1.12000       1.1200       8.0051   
    1.12500       1.1250       8.0051   
    1.13000       1.1300       8.0051   
    1.13500       1.1350       8.0051   
    1.14000       1.1400       8.0051   
    1.14500       1.1450       8.0051   
    1.15000       1.1500       8.0051   
    1.15500       1.1550       8.0051   
    1.16000       1.1600       8.0051   
    1.16500       1.1650       8.0051   
    1.17000       1.1700       8.0051   
    1.17500       1.1750       8.0051   
    1.18000       1.1800       8.0051   
    1.18500       1.1850       8.0051   
    1.19000       1.1900       8.0051   
    1.19500       1.1950       8.0051   
    1.20000       1.2000       8.0051   
    1.20500       1.2050       8.0051   
    1.21000       1.2100       8.0051   
    1.21500       1.2150       8.0051   
    1.22000       1.2200       8.0051   
    1.22500       1.2250       8.0050   
    1.23000       1.2300       8.0050   
    1.23500       1.2350       8.0050   
    1.24000       1.2400       8.0050   
    1.24500       1.2450       8.0050   
    1.25000       1.2500       8.0050   
    1.25500       1.2550       8.0050   
    1.26000       1.2600       8.0050   
    1.26500       1.2650       8.0050   
    1.27000       1.2700       8.0050   
    1.27500       1.2750       8.0050   
    1.28000       1.2800       8.0050   
    1.28500       1.2850       8.0050   
    1.29000       1.2900       8.0050   
    1.29500       1.2950       8.0050   
    1.30000       1.3000       8.0050   
    1.30500       1.3050       8.0050   
    1.31000       1.3100       8.0050   
    1.31500       1.3150       8.0050   
    1.32000       1.3200       8.0050   
    1.32500       1.3250       8.0050   
    1.33000       1.3300       8.0050   
    1.33500       1.3350       8.0050   
    1.34000       1.3400       8.0050   
    1.34500       1.3450       8.0050   
    1.35000       1.3500       8.0050   
    1.35500       1.3550       8.0050   
    1.36000       1.3600       8.0050   
    1.36500       1.3650       8.0050   
    1.37000       1.3700       8.0049   
    1.37500       1.3750       8.0049   
    1.38000       1.3800       8.0049   
    1.38500       1.3850       8.0049   
    1.39000       1.3900       8.0049   
    1.39500       1.3950       8.0049   
    1.40000       1.4000       8.0049   
    1.40500       1.4050       8.0049   
    1.41000       1.4100       8.0049   
    1.41500       1.4150       8.0049   
    1.42000       1.4200       8.0049   
    1.42500       1.4250       8.0049   
    1.43000       1.4300       8.0049   
    1.43500       1.4350       8.0049   
    1.44000       1.4400       8.0049   
    1.44500       1.4450       8.0049   
    1.45000       1.4500       8.0049   
    1.45500       1.4550       8.0049   
    1.46000       1.4600       8.0049   
    1.46500       1.4650       8.0049   
    1.47000       1.4700       8.0049   
    1.47500       1.4750       8.0049   
    1.48000       1.4800       8.0049   
    1.48500       1.4850       8.0049   
    1.49000       1.4900       8.0049   
    1.49500       1.4950       8.0049   
    1.50000       1.5000       8.0049   
    1.50500       1.5050       8.0049   
    1.51000       1.5100       8.0049   
    1.51500       1.5150       8.0048   
    1.52000       1.5200       8.0048   
    1.52500       1.5250       8.0048   
    1.53000       1.5300       8.0048   
    1.53500       1.5350       8.0048   
    1.54000       1.5400       8.0048   
    1.54500       1.5450       8.0048   
    1.55000       1.5500       8.0048   
    1.55500       1.5550       8.0048   
    1.56000       1.5600       8.0048   
    1.56500       1.5650       8.0048   
    1.57000       1.5700       8.0048   
    1.57500       1.5750       8.0048   
    1.58000       1.5800       8.0048   
[...]
   27.78500      27.7850    -129.8007   
   27.79000      27.7900    -129.8752   
   27.79500      27.7950    -129.9498   
   27.80000      27.8000    -130.0243   
   27.80500      27.8050    -130.0989   
   27.81000      27.8100    -130.1734   
   27.81500      27.8150    -130.2480   
   27.82000      27.8200    -130.3226   
   27.82500      27.8250    -130.3972   
   27.83000      27.8300    -130.4717   
   27.83500      27.8350    -130.5463   
   27.84000      27.8400    -130.6209   
   27.84500      27.8450    -130.6955   
   27.85000      27.8500    -130.7701   
   27.85500      27.8550    -130.8447   
   27.86000      27.8600    -130.9193   
   27.86500      27.8650    -130.9939   
   27.87000      27.8700    -131.0685   
   27.87500      27.8750    -131.1432   
   27.88000      27.8800    -131.2178   
   27.88500      27.8850    -131.2924   
   27.89000      27.8900    -131.3671   
   27.89500      27.8950    -131.4417   
   27.90000      27.9000    -131.5163   
   27.90500      27.9050    -131.5910   
   27.91000      27.9100    -131.6656   
   27.91500      27.9150    -131.7403   
   27.92000      27.9200    -131.8150   
   27.92500      27.9250    -131.8896   
   27.93000      27.9300    -131.9643   
   27.93500      27.9350    -132.0390   
   27.94000      27.9400    -132.1137   
   27.94500      27.9450    -132.1883   
   27.95000      27.9500    -132.2630   
   27.95500      27.9550    -132.3377   
   27.96000      27.9600    -132.4124   
   27.96500      27.9650    -132.4871   
   27.97000      27.9700    -132.5618   
   27.97500      27.9750    -132.6365   
   27.98000      27.9800    -132.7113   
   27.98500      27.9850    -132.7860   
   27.99000      27.9900    -132.8607   
   27.99500      27.9950    -132.9354   
   28.00000      28.0000    -133.0102   
   28.00500      28.0050    -133.0849   
   28.01000      28.0100    -133.1596   
   28.01500      28.0150    -133.2344   
   28.02000      28.0200    -133.3091   
   28.02500      28.0250    -133.3839   
   28.03000      28.0300    -133.4587   
   28.03500      28.0350    -133.5334   
   28.04000      28.0400    -133.6082   
   28.04500      28.0450    -133.6830   
   28.05000      28.0500    -133.7577   
   28.05500      28.0550    -133.8325   
   28.06000      28.0600    -133.9073   
   28.06500      28.0650    -133.9821   
   28.07000      28.0700    -134.0569   
   28.07500      28.0750    -134.1317   
   28.08000      28.0800    -134.2065   
   28.08500      28.0850    -134.2813   
   28.09000      28.0900    -134.3561   
   28.09500      28.0950    -134.4309   
   28.10000      28.1000    -134.5058   
   28.10500      28.1050    -134.5806   
   28.11000      28.1100    -134.6554   
   28.11500      28.1150    -134.7303   
   28.12000      28.1200    -134.8051   
   28.12500      28.1250    -134.8799   
   28.13000      28.1300    -134.9548   
   28.13500      28.1350    -135.0296   
   28.14000      28.1400    -135.1045   
   28.14500      28.1450    -135.1794   
   28.15000      28.1500    -135.2542   
   28.15500      28.1550    -135.3291   
   28.16000      28.1600    -135.4040   
   28.16500      28.1650    -135.4788   
   28.17000      28.1700    -135.5537   
   28.17500      28.1750    -135.6286   
   28.18000      28.1800    -135.7035   
   28.18500      28.1850    -135.7784   
   28.19000      28.1900    -135.8533   
   28.19500      28.1950    -135.9282   
   28.20000      28.2000    -136.0031   
   28.20500      28.2050    -136.0780   
   28.21000      28.2100    -136.1529   
   28.21500      28.2150    -136.2279   
   28.22000      28.2200    -136.3028   
   28.22500      28.2250    -136.3777   
   28.23000      28.2300    -136.4527   
   28.23500      28.2350    -136.5276   
   28.24000      28.2400    -136.6025   
   28.24500      28.2450    -136.6775   
   28.25000      28.2500    -136.7524   
   28.25500      28.2550    -136.8274   
   28.26000      28.2600    -136.9024   
   28.26500      28.2650    -136.9773   
   28.27000      28.2700    -137.0523   
   28.27500      28.2750    -137.1273   
   28.28000      28.2800    -137.2022   
   28.28500      28.2850    -137.2772   
   28.29000      28.2900    -137.3522   
   28.29500      28.2950    -137.4272   
   28.30000      28.3000    -137.5022   
   28.30500      28.3050    -137.5772   
   28.31000      28.3100    -137.6522   
   28.31500      28.3150    -137.7272   
   28.32000      28.3200    -137.8022   
   28.32500      28.3250    -137.8772   
   28.33000      28.3300    -137.9522   
   28.33500      28.3350    -138.0273   
   28.34000      28.3400    -138.1023   
   28.34500      28.3450    -138.1773   
   28.35000      28.3500    -138.2524   
   28.35500      28.3550    -138.3274   
   28.36000      28.3600    -138.4024   
   28.36500      28.3650    -138.4775   
   28.37000      28.3700    -138.5525   
   28.37500      28.3750    -138.6276   
   28.38000      28.3800    -138.7027   
   28.38500      28.3850    -138.7777   
   28.39000      28.3900    -138.8528   
   28.39500      28.3950    -138.9279   
   28.40000      28.4000    -139.0029   
   28.40500      28.4050    -139.0780   
   28.41000      28.4100    -139.1531   
   28.41500      28.4150    -139.2282   
   28.42000      28.4200    -139.3033   
   28.42500      28.4250    -139.3784   
   28.43000      28.4300    -139.4535   
   28.43500      28.4350    -139.5286   
   28.44000      28.4400    -139.6037   
   28.44500      28.4450    -139.6788   
   28.45000      28.4500    -139.7539   
   28.45500      28.4550    -139.8291   
   28.46000      28.4600    -139.9042   
   28.46500      28.4650    -139.9793   
   28.47000      28.4700    -140.0545   
   28.47500      28.4750    -140.1296   
   28.48000      28.4800    -140.2047   
   28.48500      28.4850    -140.2799   
   28.49000      28.4900    -140.3550   
   28.49500      28.4950    -140.4302   
   28.50000      28.5000    -140.5054   
   28.50500      28.5050    -140.5805   
   28.51000      28.5100    -140.6557   
   28.51500      28.5150    -140.7309   
   28.52000      28.5200    -140.8060   
   28.52500      28.5250    -140.8812   
   28.53000      28.5300    -140.9564   
   28.53500      28.5350    -141.0316   
   28.54000      28.5400    -141.1068   
   28.54500      28.5450    -141.1820   
   28.55000      28.5500    -141.2572   
   28.55500      28.5550    -141.3324   
   28.56000      28.5600    -141.4076   
   28.56500      28.5650    -141.4828   
   28.57000      28.5700    -141.5580   
   28.57500      28.5750    -141.6333   
   28.58000      28.5800    -141.7085   
   28.58500      28.5850    -141.7837   
   28.59000      28.5900    -141.8589   
   28.59500      28.5950    -141.9342   
   28.60000      28.6000    -142.0094   
   28.60500      28.6050    -142.0847   
   28.61000      28.6100    -142.1599   
   28.61500      28.6150    -142.2352   
   28.62000      28.6200    -142.3104   
   28.62500      28.6250    -142.3857   
   28.63000      28.6300    -142.4610   
   28.63500      28.6350    -142.5362   
   28.64000      28.6400    -142.6115   
   28.64500      28.6450    -142.6868   
   28.65000      28.6500    -142.7621   
   28.65500      28.6550    -142.8373   
   28.66000      28.6600    -142.9126   
   28.66500      28.6650    -142.9879   
   28.67000      28.6700    -143.0632   
   28.67500      28.6750    -143.1385   
   28.68000      28.6800    -143.2138   
   28.68500      28.6850    -143.2891   
   28.69000      28.6900    -143.3644   
   28.69500      28.6950    -143.4398   
   28.70000      28.7000    -143.5151   
   28.70500      28.7050    -143.5904   
   28.71000      28.7100    -143.6657   
   28.71500      28.7150    -143.7411   
   28.72000      28.7200    -143.8164   
   28.72500      28.7250    -143.8918   
   28.73000      28.7300    -143.9671   
   28.73500      28.7350    -144.0424   
   28.74000      28.7400    -144.1178   
   28.74500      28.7450    -144.1932   
   28.75000      28.7500    -144.2685   
   28.75500      28.7550    -144.3439   
   28.76000      28.7600    -144.4193   
   28.76500      28.7650    -144.4946   
   28.77000      28.7700    -144.5700   
   28.77500      28.7750    -144.6454   
   28.78000      28.7800    -144.7208   
   28.78500      28.7850    -144.7962   
   28.79000      28.7900    -144.8715   
   28.79500      28.7950    -144.9469   
   28.80000      28.8000    -145.0223   
   28.80500      28.8050    -145.0977   
   28.81000      28.8100    -145.1732   
   28.81500      28.8150    -145.2486   
   28.82000      28.8200    -145.3240   
   28.82500      28.8250    -145.3994   
   28.83000      28.8300    -145.4748   
   28.83500      28.8350    -145.5502   
   28.84000      28.8400    -145.6257   
   28.84500      28.8450    -145.7011   
   28.85000      28.8500    -145.7766   
   28.85500      28.8550    -145.8520   
   28.86000      28.8600    -145.9274   
   28.86500      28.8650    -146.0029   
   28.87000      28.8700    -146.0783   
   28.87500      28.8750    -146.1538   
   28.88000      28.8800    -146.2293   
   28.88500      28.8850    -146.3047   
   28.89000      28.8900    -146.3802   
   28.89500      28.8950    -146.4557   
   28.90000      28.9000    -146.5312   
   28.90500      28.9050    -146.6066   
   28.91000      28.9100    -146.6821   
   28.91500      28.9150    -146.7576   
   28.92000      28.9200    -146.8331   
   28.92500      28.9250    -146.9086   
   28.93000      28.9300    -146.9841   
   28.93500      28.9350    -147.0596   
   28.94000      28.9400    -147.1351   
   28.94500      28.9450    -147.2106   
   28.95000      28.9500    -147.2861   
   28.95500      28.9550    -147.3617   
   28.96000      28.9600    -147.4372   
   28.96500      28.9650    -147.5127   
   28.97000      28.9700    -147.5882   
   28.97500      28.9750    -147.6638   
   28.98000      28.9800    -147.7393   
   28.98500      28.9850    -147.8149   
   28.99000      28.9900    -147.8904   
   28.99500      28.9950    -147.9659   
   29.00000      29.0000    -148.0415   
   29.00500      29.0050    -148.1171   
   29.01000      29.0100    -148.1926   
   29.01500      29.0150    -148.2682   
   29.02000      29.0200    -148.3438   
   29.02500      29.0250    -148.4193   
   29.03000      29.0300    -148.4949   
   29.03500      29.0350    -148.5705   
   29.04000      29.0400    -148.6461   
   29.04500      29.0450    -148.7217   
   29.05000      29.0500    -148.7972   
   29.05500      29.0550    -148.8728   
   29.06000      29.0600    -148.9484   
   29.06500      29.0650    -149.0240   
   29.07000      29.0700    -149.0996   
   29.07500      29.0750    -149.1753   
   29.08000      29.0800    -149.2509   
   29.08500      29.0850    -149.3265   
   29.09000      29.0900    -149.4021   
   29.09500      29.0950    -149.4777   
   29.10000      29.1000    -149.5534   
   29.10500      29.1050    -149.6290   
   29.11000      29.1100    -149.7046   
   29.11500      29.1150    -149.7803   
   29.12000      29.1200    -149.8559   
   29.12500      29.1250    -149.9316   
   29.13000      29.1300    -150.0072   
   29.13500      29.1350    -150.0829   
   29.14000      29.1400    -150.1585   
   29.14500      29.1450    -150.2342   
   29.15000      29.1500    -150.3099   
   29.15500      29.1550    -150.3855   
   29.16000      29.1600    -150.4612   
   29.16500      29.1650    -150.5369   
   29.17000      29.1700    -150.6126   
   29.17500      29.1750    -150.6882   
   29.18000      29.1800    -150.7639   
   29.18500      29.1850    -150.8396   
   29.19000      29.1900    -150.9153   
   29.19500      29.1950    -150.9910   
   29.20000      29.2000    -151.0667   
   29.20500      29.2050    -151.1424   
   29.21000      29.2100    -151.2181   
   29.21500      29.2150    -151.2938   
   29.22000      29.2200    -151.3696   
   29.22500      29.2250    -151.4453   
   29.23000      29.2300    -151.5210   
   29.23500      29.2350    -151.5967   
   29.24000      29.2400    -151.6725   
   29.24500      29.2450    -151.7482   
   29.25000      29.2500    -151.8239   
   29.25500      29.2550    -151.8997   
   29.26000      29.2600    -151.9754   
   29.26500      29.2650    -152.0512   
   29.27000      29.2700    -152.1269   
   29.27500      29.2750    -152.2027   
   29.28000      29.2800    -152.2784   
   29.28500      29.2850    -152.3542   
   29.29000      29.2900    -152.4300   
   29.29500      29.2950    -152.5057   
   29.30000      29.3000    -152.5815   
   29.30500      29.3050    -152.6573   
   29.31000      29.3100    -152.7331   
   29.31500      29.3150    -152.8089   
   29.32000      29.3200    -152.8847   
   29.32500      29.3250    -152.9605   
   29.33000      29.3300    -153.0362   
   29.33500      29.3350    -153.1120   
   29.34000      29.3400    -153.1879   
   29.34500      29.3450    -153.2637   
   29.35000      29.3500    -153.3395   
   29.35500      29.3550    -153.4153   
   29.36000      29.3600    -153.4911   
   29.36500      29.3650    -153.5669   
   29.37000      29.3700    -153.6428   
   29.37500      29.3750    -153.7186   
   29.38000      29.3800    -153.7944   
   29.38500      29.3850    -153.8702   
   29.39000      29.3900    -153.9461   
   29.39500      29.3950    -154.0219   
   29.40000      29.4000    -154.0978   
   29.40500      29.4050    -154.1736   
   29.41000      29.4100    -154.2495   
   29.41500      29.4150    -154.3253   
   29.42000      29.4200    -154.4012   
   29.42500      29.4250    -154.4771   
   29.43000      29.4300    -154.5529   
   29.43500      29.4350    -154.6288   
   29.44000      29.4400    -154.7047   
   29.44500      29.4450    -154.7806   
   29.45000      29.4500    -154.8564   
   29.45500      29.4550    -154.9323   
   29.46000      29.4600    -155.0082   
   29.46500      29.4650    -155.0841   
   29.47000      29.4700    -155.1600   
   29.47500      29.4750    -155.2359   
   29.48000      29.4800    -155.3118   
   29.48500      29.4850    -155.3877   
   29.49000      29.4900    -155.4636   
   29.49500      29.4950    -155.5395   
   29.50000      29.5000    -155.6155   
   29.50500      29.5050    -155.6914   
   29.51000      29.5100    -155.7673   
   29.51500      29.5150    -155.8432   
   29.52000      29.5200    -155.9192   
   29.52500      29.5250    -155.9951   
   29.53000      29.5300    -156.0710   
   29.53500      29.5350    -156.1470   
   29.54000      29.5400    -156.2229   
   29.54500      29.5450    -156.2989   
   29.55000      29.5500    -156.3748   
   29.55500      29.5550    -156.4508   
   29.56000      29.5600    -156.5267   
   29.56500      29.5650    -156.6027   
   29.57000      29.5700    -156.6787   
   29.57500      29.5750    -156.7546   
   29.58000      29.5800    -156.8306   
   29.58500      29.5850    -156.9066   
   29.59000      29.5900    -156.9826   
   29.59500      29.5950    -157.0585   
   29.60000      29.6000    -157.1345   
   29.60500      29.6050    -157.2105   
   29.61000      29.6100    -157.2865   
   29.61500      29.6150    -157.3625   
   29.62000      29.6200    -157.4385   
   29.62500      29.6250    -157.5145   
   29.63000      29.6300    -157.5905   
   29.63500      29.6350    -157.6665   
   29.64000      29.6400    -157.7426   
   29.64500      29.6450    -157.8186   
   29.65000      29.6500    -157.8946   
   29.65500      29.6550    -157.9706   
   29.66000      29.6600    -158.0466   
   29.66500      29.6650    -158.1227   
   29.67000      29.6700    -158.1987   
   29.67500      29.6750    -158.2747   
   29.68000      29.6800    -158.3508   
   29.68500      29.6850    -158.4268   
   29.69000      29.6900    -158.5029   
   29.69500      29.6950    -158.5789   
   29.70000      29.7000    -158.6550   
   29.70500      29.7050    -158.7311   
   29.71000      29.7100    -158.8071   
   29.71500      29.7150    -158.8832   
   29.72000      29.7200    -158.9592   
   29.72500      29.7250    -159.0353   
   29.73000      29.7300    -159.1114   
   29.73500      29.7350    -159.1875   
   29.74000      29.7400    -159.2636   
   29.74500      29.7450    -159.3396   
   29.75000      29.7500    -159.4157   
   29.75500      29.7550    -159.4918   
   29.76000      29.7600    -159.5679   
   29.76500      29.7650    -159.6440   
   29.77000      29.7700    -159.7201   
   29.77500      29.7750    -159.7962   
   29.78000      29.7800    -159.8723   
   29.78500      29.7850    -159.9484   
   29.79000      29.7900    -160.0246   
   29.79500      29.7950    -160.1007   
   29.80000      29.8000    -160.1768   
   29.80500      29.8050    -160.2529   
   29.81000      29.8100    -160.3291   
   29.81500      29.8150    -160.4052   
   29.82000      29.8200    -160.4813   
   29.82500      29.8250    -160.5575   
   29.83000      29.8300    -160.6336   
   29.83500      29.8350    -160.7098   
   29.84000      29.8400    -160.7859   
   29.84500      29.8450    -160.8621   
   29.85000      29.8500    -160.9382   
   29.85500      29.8550    -161.0144   
   29.86000      29.8600    -161.0905   
   29.86500      29.8650    -161.1667   
   29.87000      29.8700    -161.2429   
   29.87500      29.8750    -161.3190   
   29.88000      29.8800    -161.3952   
   29.88500      29.8850    -161.4714   
   29.89000      29.8900    -161.5476   
   29.89500      29.8950    -161.6238   
   29.90000      29.9000    -161.7000   
   29.90500      29.9050    -161.7762   
   29.91000      29.9100    -161.8523   
   29.91500      29.9150    -161.9285   
   29.92000      29.9200    -162.0048   
   29.92500      29.9250    -162.0810   
   29.93000      29.9300    -162.1572   
   29.93500      29.9350    -162.2334   
   29.94000      29.9400    -162.3096   
   29.94500      29.9450    -162.3858   
   29.95000      29.9500    -162.4620   
   29.95500      29.9550    -162.5383   
   29.96000      29.9600    -162.6145   
   29.96500      29.9650    -162.6907   
   29.97000      29.9700    -162.7670   
   29.97500      29.9750    -162.8432   
   29.98000      29.9800    -162.9194   
   29.98500      29.9850    -162.9957   
   29.99000      29.9900    -163.0719   
   29.99500      29.9950    -163.1482   
   30.00000      30.0000    -163.2244   
y

          ***** job concluded
1****** HSPICE -- C-2009.03-SP1 32-BIT (May 25 2009) winnt ******               
 ******  
 ** 30 cascaded, 4 paralleled cells

  ******  job statistics summary tnom=  25.000 temp=  25.000 *****

  ******  HSPICE Threads Information  ******
  Command Line Threads Count                  :     1
  Available CPU Count                         :     8
  Actual Model Evaluation(Load) Threads Count :     1
  Actual Solver Threads Count                 :     1


  ******  Circuit Statistics  ******
  # nodes       =      63 # elements   =     133
  # resistors   =      68 # capacitors =       0 # inductors   =       0
  # mutual_inds =       0 # vccs       =       0 # vcvs        =       0
  # cccs        =       0 # ccvs       =       0 # volt_srcs   =       1
  # curr_srcs   =      28 # diodes     =      36 # bjts        =       0
  # jfets       =       0 # mosfets    =       0 # U elements  =       0
  # T elements  =       0 # W elements =       0 # B elements  =       0
  # S elements  =       0 # P elements =       0 # va device   =       0


  ******  Runtime Statistics (seconds)  ******

  analysis           time    # points   tot. iter  conv.iter
  op point           0.00           1           0
  dc sweep           0.95        6001       12043
  readin             0.07
  errchk             0.02
  setup              0.02
  output             0.02


           total memory used          284  kbytes
           total cpu time            1.10 seconds
           total elapsed time        1.13 seconds
           job started at     13:19:08 06/24/2015
           job ended   at     13:19:10 06/24/2015


 Init: hspice initialization file: C:\synopsys\Hspice_C-2009.03-SP1\hspice.ini
  lic: Release hspice token(s) 
