 ****** HSPICE -- C-2009.03-SP1 32-BIT (May 25 2009) winnt ******               
  Copyright (C) 2009 Synopsys, Inc. All Rights Reserved.                        
  Unpublished-rights reserved under US copyright laws.
  This program is protected by law and is subject to the 
  terms and conditions of the license agreement from Synopsys.
  Use of this program is your acceptance to be bound by the 
  license agreement. HSPICE is the trademark of Synopsys, Inc.
  Input File: C:\Users\Administrator\Desktop\MultiLevel\gtModel.sp              
  lic:  
  lic: FLEXlm: v8.5b 
  lic: USER:   Administrator        HOSTNAME: WIN-HBGPFB5Q4D3 
  lic: HOSTID: "002268384615 005056c00001 005056c00008" PID:      6080 
  lic: Using FLEXlm license file: 
  lic: C:\synopsys\hspice_2009-03.lic 
  lic: Checkout 1 hspice 
  lic: License/Maintenance for hspice will expire on 31-dec-2020/2007.9 
  lic: NODE LOCKED license on hostid "002268384615 005056c00001 005056c00008" 
  lic:   
 Init: read install configuration file: C:\synopsys\Hspice_C-2009.03-SP1\meta.cfg
 Init: hspice initialization file: C:\synopsys\Hspice_C-2009.03-SP1\hspice.ini




1****** HSPICE -- C-2009.03-SP1 32-BIT (May 25 2009) winnt ******               
 ******  
 ** 40 cascaded, 2 paralleled cells

  ******  circuit name directory
 circuit number to circuit name directory
   number circuitname                     definition         multiplier
        0 main circuit
        1 xu11.                           cell3              1.00 
        2 xu21.                           cell3              1.00 
        3 xu31.                           cell3              1.00 
        4 xu41.                           cell3              1.00 
        5 xu51.                           cell3              1.00 
        6 xu61.                           cell3              1.00 
        7 xu71.                           cell3              1.00 
        8 xu81.                           cell3              1.00 
        9 xu91.                           cell4              1.00 
       10 xu101.                          cell1              1.00 
       11 xu111.                          cell1              1.00 
       12 xu121.                          cell1              1.00 
       13 xu131.                          cell1              1.00 
       14 xu141.                          cell1              1.00 
       15 xu151.                          cell1              1.00 
       16 xu161.                          cell4              1.00 
       17 xu171.                          cell1              1.00 
       18 xu181.                          cell4              1.00 
       19 xu191.                          cell4              1.00 
       20 xu201.                          cell4              1.00 
       21 xu211.                          cell4              1.00 
       22 xu221.                          cell4              1.00 
       23 xu231.                          cell4              1.00 
       24 xu241.                          cell4              1.00 
       25 xu251.                          cell5              1.00 
       26 xu261.                          cell5              1.00 
       27 xu271.                          cell5              1.00 
       28 xu281.                          cell5              1.00 
       29 xu291.                          cell5              1.00 
       30 xu301.                          cell5              1.00 
       31 xu311.                          cell5              1.00 
       32 xu321.                          cell2              1.00 
       33 xu331.                          cell2              1.00 
       34 xu341.                          cell2              1.00 
       35 xu351.                          cell2              1.00 
       36 xu361.                          cell2              1.00 
       37 xu371.                          cell2              1.00 
       38 xu381.                          cell2              1.00 
       39 xu391.                          cell5              1.00 
       40 xu401.                          cell5              1.00 
       41 xu12.                           cell3              1.00 
       42 xu22.                           cell3              1.00 
       43 xu32.                           cell3              1.00 
       44 xu42.                           cell3              1.00 
       45 xu52.                           cell3              1.00 
       46 xu62.                           cell3              1.00 
       47 xu72.                           cell3              1.00 
       48 xu82.                           cell3              1.00 
       49 xu92.                           cell4              1.00 
       50 xu102.                          cell1              1.00 
       51 xu112.                          cell1              1.00 
       52 xu122.                          cell1              1.00 
       53 xu132.                          cell1              1.00 
       54 xu142.                          cell1              1.00 
       55 xu152.                          cell1              1.00 
       56 xu162.                          cell1              1.00 
       57 xu172.                          cell1              1.00 
       58 xu182.                          cell1              1.00 
       59 xu192.                          cell4              1.00 
       60 xu202.                          cell4              1.00 
       61 xu212.                          cell4              1.00 
       62 xu222.                          cell4              1.00 
       63 xu232.                          cell4              1.00 
       64 xu242.                          cell4              1.00 
       65 xu252.                          cell5              1.00 
       66 xu262.                          cell5              1.00 
       67 xu272.                          cell5              1.00 
       68 xu282.                          cell5              1.00 
       69 xu292.                          cell5              1.00 
       70 xu302.                          cell5              1.00 
       71 xu312.                          cell5              1.00 
       72 xu322.                          cell2              1.00 
       73 xu332.                          cell2              1.00 
       74 xu342.                          cell2              1.00 
       75 xu352.                          cell2              1.00 
       76 xu362.                          cell2              1.00 
       77 xu372.                          cell2              1.00 
       78 xu382.                          cell2              1.00 
       79 xu392.                          cell2              1.00 
       80 xu402.                          cell2              1.00 
1****** HSPICE -- C-2009.03-SP1 32-BIT (May 25 2009) winnt ******               
 ******  
 ** 40 cascaded, 2 paralleled cells

  ******  diode model parameters tnom=  25.000 temp=  25.000 *****
 ********************************************************
 *** common model parameters model name:   0:diode_b1****
 ********************************************************

     names  values   units     names  values   units     names  values   units
     -----  ------   -----     -----  ------   -----     -----  ------   -----

   1*** dc breakdown parameters ***
       vb=   0.    volts        ibv=   1.00m amps   

   2*** parasitic resistance parameters ***
       rs=   0.    ohms   

   3*** capacitance parameters ***
       fc= 500.00m              fcs= 500.00m                m= 500.00m        
     mjsw= 330.00m               pb= 800.00m volts        php= 800.00m volts  
       tt=   0.    secs         cjo=   0.    f/area       cjp=   0.    f/pj   

   4*** temperature effect parameters ***
     tlev=   0.               tlevc=   0.                 tcv=   0.    v/deg k
      trs=   0.    /deg         cta=   0.    /deg         ctp=   0.    /deg   
      xti=   3.00            xtitun=   3.00               keg=   1.00         
       eg=   1.11  ev          gap1= 702.00u  ev/deg     gap2=   1.11k  deg   
     ttt1=   0.    /deg        ttt2=   0.    /deg2        tm1=   0.    /deg   
      tm2=   0.    /deg2        tpb=   0.    v/deg k     tphp=   0.    v/deg k
     tref=  25.00   deg c 

   5*** noise parameters ***
       kf=   0.                  af=   1.00         

   ***  level   1  model parameters  ***

    level=   1.00                is=  10.00u amps         jsw=   0.    amps   
        n=   1.00               nbv=   1.00                ik=   0.    amp    
     area=   1.00                pj=   0.                 ikr=   0.    amp    
    expli=   0.    amps      explir=   0.    amps        jtun=   0.    amps   
   jtunsw=   0.    amps        ntun=  30.00         
  
 ********************************************************
 *** common model parameters model name:   0:diode_b2****
 ********************************************************

     names  values   units     names  values   units     names  values   units
     -----  ------   -----     -----  ------   -----     -----  ------   -----

   1*** dc breakdown parameters ***
       vb=   0.    volts        ibv=   1.00m amps   

   2*** parasitic resistance parameters ***
       rs=   0.    ohms   

   3*** capacitance parameters ***
       fc= 500.00m              fcs= 500.00m                m= 500.00m        
     mjsw= 330.00m               pb= 800.00m volts        php= 800.00m volts  
       tt=   0.    secs         cjo=   0.    f/area       cjp=   0.    f/pj   

   4*** temperature effect parameters ***
     tlev=   0.               tlevc=   0.                 tcv=   0.    v/deg k
      trs=   0.    /deg         cta=   0.    /deg         ctp=   0.    /deg   
      xti=   3.00            xtitun=   3.00               keg=   1.00         
       eg=   1.11  ev          gap1= 702.00u  ev/deg     gap2=   1.11k  deg   
     ttt1=   0.    /deg        ttt2=   0.    /deg2        tm1=   0.    /deg   
      tm2=   0.    /deg2        tpb=   0.    v/deg k     tphp=   0.    v/deg k
     tref=  25.00   deg c 

   5*** noise parameters ***
       kf=   0.                  af=   1.00         

   ***  level   1  model parameters  ***

    level=   1.00                is=  10.00u amps         jsw=   0.    amps   
        n=   1.00               nbv=   1.00                ik=   0.    amp    
     area=   1.00                pj=   0.                 ikr=   0.    amp    
    expli=   0.    amps      explir=   0.    amps        jtun=   0.    amps   
   jtunsw=   0.    amps        ntun=  30.00         
  
 ********************************************************
 *** common model parameters model name:   1:diode1  ****
 ********************************************************

     names  values   units     names  values   units     names  values   units
     -----  ------   -----     -----  ------   -----     -----  ------   -----

   1*** dc breakdown parameters ***
       vb=   0.    volts        ibv=   1.00m amps   

   2*** parasitic resistance parameters ***
       rs=   0.    ohms   

   3*** capacitance parameters ***
       fc= 500.00m              fcs= 500.00m                m= 500.00m        
     mjsw= 330.00m               pb= 800.00m volts        php= 800.00m volts  
       tt=   0.    secs         cjo=   0.    f/area       cjp=   0.    f/pj   

   4*** temperature effect parameters ***
     tlev=   0.               tlevc=   0.                 tcv=   0.    v/deg k
      trs=   0.    /deg         cta=   0.    /deg         ctp=   0.    /deg   
      xti=   3.00            xtitun=   3.00               keg=   1.00         
       eg=   1.11  ev          gap1= 702.00u  ev/deg     gap2=   1.11k  deg   
     ttt1=   0.    /deg        ttt2=   0.    /deg2        tm1=   0.    /deg   
      tm2=   0.    /deg2        tpb=   0.    v/deg k     tphp=   0.    v/deg k
     tref=  25.00   deg c 

   5*** noise parameters ***
       kf=   0.                  af=   1.00         

   ***  level   1  model parameters  ***

    level=   1.00                is=   1.00u amps         jsw=   0.    amps   
        n=   1.50               nbv=   1.50                ik=   0.    amp    
     area=   1.00                pj=   0.                 ikr=   0.    amp    
    expli=   0.    amps      explir=   0.    amps        jtun=   0.    amps   
   jtunsw=   0.    amps        ntun=  30.00         
  
 ********************************************************
 *** common model parameters model name:   2:diode1  ****
 ********************************************************

     names  values   units     names  values   units     names  values   units
     -----  ------   -----     -----  ------   -----     -----  ------   -----

   1*** dc breakdown parameters ***
       vb=   0.    volts        ibv=   1.00m amps   

   2*** parasitic resistance parameters ***
       rs=   0.    ohms   

   3*** capacitance parameters ***
       fc= 500.00m              fcs= 500.00m                m= 500.00m        
     mjsw= 330.00m               pb= 800.00m volts        php= 800.00m volts  
       tt=   0.    secs         cjo=   0.    f/area       cjp=   0.    f/pj   

   4*** temperature effect parameters ***
     tlev=   0.               tlevc=   0.                 tcv=   0.    v/deg k
      trs=   0.    /deg         cta=   0.    /deg         ctp=   0.    /deg   
      xti=   3.00            xtitun=   3.00               keg=   1.00         
       eg=   1.11  ev          gap1= 702.00u  ev/deg     gap2=   1.11k  deg   
     ttt1=   0.    /deg        ttt2=   0.    /deg2        tm1=   0.    /deg   
      tm2=   0.    /deg2        tpb=   0.    v/deg k     tphp=   0.    v/deg k
     tref=  25.00   deg c 

   5*** noise parameters ***
       kf=   0.                  af=   1.00         

   ***  level   1  model parameters  ***

    level=   1.00                is=   1.00u amps         jsw=   0.    amps   
        n=   1.50               nbv=   1.50                ik=   0.    amp    
     area=   1.00                pj=   0.                 ikr=   0.    amp    
    expli=   0.    amps      explir=   0.    amps        jtun=   0.    amps   
   jtunsw=   0.    amps        ntun=  30.00         
  
 ********************************************************
 *** common model parameters model name:   3:diode1  ****
 ********************************************************

     names  values   units     names  values   units     names  values   units
     -----  ------   -----     -----  ------   -----     -----  ------   -----

   1*** dc breakdown parameters ***
       vb=   0.    volts        ibv=   1.00m amps   

   2*** parasitic resistance parameters ***
       rs=   0.    ohms   

   3*** capacitance parameters ***
       fc= 500.00m              fcs= 500.00m                m= 500.00m        
     mjsw= 330.00m               pb= 800.00m volts        php= 800.00m volts  
       tt=   0.    secs         cjo=   0.    f/area       cjp=   0.    f/pj   

   4*** temperature effect parameters ***
     tlev=   0.               tlevc=   0.                 tcv=   0.    v/deg k
      trs=   0.    /deg         cta=   0.    /deg         ctp=   0.    /deg   
      xti=   3.00            xtitun=   3.00               keg=   1.00         
       eg=   1.11  ev          gap1= 702.00u  ev/deg     gap2=   1.11k  deg   
     ttt1=   0.    /deg        ttt2=   0.    /deg2        tm1=   0.    /deg   
      tm2=   0.    /deg2        tpb=   0.    v/deg k     tphp=   0.    v/deg k
     tref=  25.00   deg c 

   5*** noise parameters ***
       kf=   0.                  af=   1.00         

   ***  level   1  model parameters  ***

    level=   1.00                is=   1.00u amps         jsw=   0.    amps   
        n=   1.50               nbv=   1.50                ik=   0.    amp    
     area=   1.00                pj=   0.                 ikr=   0.    amp    
    expli=   0.    amps      explir=   0.    amps        jtun=   0.    amps   
   jtunsw=   0.    amps        ntun=  30.00         
  
 ********************************************************
 *** common model parameters model name:   4:diode1  ****
 ********************************************************

     names  values   units     names  values   units     names  values   units
     -----  ------   -----     -----  ------   -----     -----  ------   -----

   1*** dc breakdown parameters ***
       vb=   0.    volts        ibv=   1.00m amps   

   2*** parasitic resistance parameters ***
       rs=   0.    ohms   

   3*** capacitance parameters ***
       fc= 500.00m              fcs= 500.00m                m= 500.00m        
     mjsw= 330.00m               pb= 800.00m volts        php= 800.00m volts  
       tt=   0.    secs         cjo=   0.    f/area       cjp=   0.    f/pj   

   4*** temperature effect parameters ***
     tlev=   0.               tlevc=   0.                 tcv=   0.    v/deg k
      trs=   0.    /deg         cta=   0.    /deg         ctp=   0.    /deg   
      xti=   3.00            xtitun=   3.00               keg=   1.00         
       eg=   1.11  ev          gap1= 702.00u  ev/deg     gap2=   1.11k  deg   
     ttt1=   0.    /deg        ttt2=   0.    /deg2        tm1=   0.    /deg   
      tm2=   0.    /deg2        tpb=   0.    v/deg k     tphp=   0.    v/deg k
     tref=  25.00   deg c 

   5*** noise parameters ***
       kf=   0.                  af=   1.00         

   ***  level   1  model parameters  ***

    level=   1.00                is=   1.00u amps         jsw=   0.    amps   
        n=   1.50               nbv=   1.50                ik=   0.    amp    
     area=   1.00                pj=   0.                 ikr=   0.    amp    
    expli=   0.    amps      explir=   0.    amps        jtun=   0.    amps   
   jtunsw=   0.    amps        ntun=  30.00         
  
 ********************************************************
 *** common model parameters model name:   5:diode1  ****
 ********************************************************

     names  values   units     names  values   units     names  values   units
     -----  ------   -----     -----  ------   -----     -----  ------   -----

   1*** dc breakdown parameters ***
       vb=   0.    volts        ibv=   1.00m amps   

   2*** parasitic resistance parameters ***
       rs=   0.    ohms   

   3*** capacitance parameters ***
       fc= 500.00m              fcs= 500.00m                m= 500.00m        
     mjsw= 330.00m               pb= 800.00m volts        php= 800.00m volts  
       tt=   0.    secs         cjo=   0.    f/area       cjp=   0.    f/pj   

   4*** temperature effect parameters ***
     tlev=   0.               tlevc=   0.                 tcv=   0.    v/deg k
      trs=   0.    /deg         cta=   0.    /deg         ctp=   0.    /deg   
      xti=   3.00            xtitun=   3.00               keg=   1.00         
       eg=   1.11  ev          gap1= 702.00u  ev/deg     gap2=   1.11k  deg   
     ttt1=   0.    /deg        ttt2=   0.    /deg2        tm1=   0.    /deg   
      tm2=   0.    /deg2        tpb=   0.    v/deg k     tphp=   0.    v/deg k
     tref=  25.00   deg c 

   5*** noise parameters ***
       kf=   0.                  af=   1.00         

   ***  level   1  model parameters  ***

    level=   1.00                is=   1.00u amps         jsw=   0.    amps   
        n=   1.50               nbv=   1.50                ik=   0.    amp    
     area=   1.00                pj=   0.                 ikr=   0.    amp    
    expli=   0.    amps      explir=   0.    amps        jtun=   0.    amps   
   jtunsw=   0.    amps        ntun=  30.00         
  
 ********************************************************
 *** common model parameters model name:   6:diode1  ****
 ********************************************************

     names  values   units     names  values   units     names  values   units
     -----  ------   -----     -----  ------   -----     -----  ------   -----

   1*** dc breakdown parameters ***
       vb=   0.    volts        ibv=   1.00m amps   

   2*** parasitic resistance parameters ***
       rs=   0.    ohms   

   3*** capacitance parameters ***
       fc= 500.00m              fcs= 500.00m                m= 500.00m        
     mjsw= 330.00m               pb= 800.00m volts        php= 800.00m volts  
       tt=   0.    secs         cjo=   0.    f/area       cjp=   0.    f/pj   

   4*** temperature effect parameters ***
     tlev=   0.               tlevc=   0.                 tcv=   0.    v/deg k
      trs=   0.    /deg         cta=   0.    /deg         ctp=   0.    /deg   
      xti=   3.00            xtitun=   3.00               keg=   1.00         
       eg=   1.11  ev          gap1= 702.00u  ev/deg     gap2=   1.11k  deg   
     ttt1=   0.    /deg        ttt2=   0.    /deg2        tm1=   0.    /deg   
      tm2=   0.    /deg2        tpb=   0.    v/deg k     tphp=   0.    v/deg k
     tref=  25.00   deg c 

   5*** noise parameters ***
       kf=   0.                  af=   1.00         

   ***  level   1  model parameters  ***

    level=   1.00                is=   1.00u amps         jsw=   0.    amps   
        n=   1.50               nbv=   1.50                ik=   0.    amp    
     area=   1.00                pj=   0.                 ikr=   0.    amp    
    expli=   0.    amps      explir=   0.    amps        jtun=   0.    amps   
   jtunsw=   0.    amps        ntun=  30.00         
  
 ********************************************************
 *** common model parameters model name:   7:diode1  ****
 ********************************************************

     names  values   units     names  values   units     names  values   units
     -----  ------   -----     -----  ------   -----     -----  ------   -----

   1*** dc breakdown parameters ***
       vb=   0.    volts        ibv=   1.00m amps   

   2*** parasitic resistance parameters ***
       rs=   0.    ohms   

   3*** capacitance parameters ***
       fc= 500.00m              fcs= 500.00m                m= 500.00m        
     mjsw= 330.00m               pb= 800.00m volts        php= 800.00m volts  
       tt=   0.    secs         cjo=   0.    f/area       cjp=   0.    f/pj   

   4*** temperature effect parameters ***
     tlev=   0.               tlevc=   0.                 tcv=   0.    v/deg k
      trs=   0.    /deg         cta=   0.    /deg         ctp=   0.    /deg   
      xti=   3.00            xtitun=   3.00               keg=   1.00         
       eg=   1.11  ev          gap1= 702.00u  ev/deg     gap2=   1.11k  deg   
     ttt1=   0.    /deg        ttt2=   0.    /deg2        tm1=   0.    /deg   
      tm2=   0.    /deg2        tpb=   0.    v/deg k     tphp=   0.    v/deg k
     tref=  25.00   deg c 

   5*** noise parameters ***
       kf=   0.                  af=   1.00         

   ***  level   1  model parameters  ***

    level=   1.00                is=   1.00u amps         jsw=   0.    amps   
        n=   1.50               nbv=   1.50                ik=   0.    amp    
     area=   1.00                pj=   0.                 ikr=   0.    amp    
    expli=   0.    amps      explir=   0.    amps        jtun=   0.    amps   
   jtunsw=   0.    amps        ntun=  30.00         
  
 ********************************************************
 *** common model parameters model name:   8:diode1  ****
 ********************************************************

     names  values   units     names  values   units     names  values   units
     -----  ------   -----     -----  ------   -----     -----  ------   -----

   1*** dc breakdown parameters ***
       vb=   0.    volts        ibv=   1.00m amps   

   2*** parasitic resistance parameters ***
       rs=   0.    ohms   

   3*** capacitance parameters ***
       fc= 500.00m              fcs= 500.00m                m= 500.00m        
     mjsw= 330.00m               pb= 800.00m volts        php= 800.00m volts  
       tt=   0.    secs         cjo=   0.    f/area       cjp=   0.    f/pj   

   4*** temperature effect parameters ***
     tlev=   0.               tlevc=   0.                 tcv=   0.    v/deg k
      trs=   0.    /deg         cta=   0.    /deg         ctp=   0.    /deg   
      xti=   3.00            xtitun=   3.00               keg=   1.00         
       eg=   1.11  ev          gap1= 702.00u  ev/deg     gap2=   1.11k  deg   
     ttt1=   0.    /deg        ttt2=   0.    /deg2        tm1=   0.    /deg   
      tm2=   0.    /deg2        tpb=   0.    v/deg k     tphp=   0.    v/deg k
     tref=  25.00   deg c 

   5*** noise parameters ***
       kf=   0.                  af=   1.00         

   ***  level   1  model parameters  ***

    level=   1.00                is=   1.00u amps         jsw=   0.    amps   
        n=   1.50               nbv=   1.50                ik=   0.    amp    
     area=   1.00                pj=   0.                 ikr=   0.    amp    
    expli=   0.    amps      explir=   0.    amps        jtun=   0.    amps   
   jtunsw=   0.    amps        ntun=  30.00         
  
 ********************************************************
 *** common model parameters model name:   9:diode1  ****
 ********************************************************

     names  values   units     names  values   units     names  values   units
     -----  ------   -----     -----  ------   -----     -----  ------   -----

   1*** dc breakdown parameters ***
       vb=   0.    volts        ibv=   1.00m amps   

   2*** parasitic resistance parameters ***
       rs=   0.    ohms   

   3*** capacitance parameters ***
       fc= 500.00m              fcs= 500.00m                m= 500.00m        
     mjsw= 330.00m               pb= 800.00m volts        php= 800.00m volts  
       tt=   0.    secs         cjo=   0.    f/area       cjp=   0.    f/pj   

   4*** temperature effect parameters ***
     tlev=   0.               tlevc=   0.                 tcv=   0.    v/deg k
      trs=   0.    /deg         cta=   0.    /deg         ctp=   0.    /deg   
      xti=   3.00            xtitun=   3.00               keg=   1.00         
       eg=   1.11  ev          gap1= 702.00u  ev/deg     gap2=   1.11k  deg   
     ttt1=   0.    /deg        ttt2=   0.    /deg2        tm1=   0.    /deg   
      tm2=   0.    /deg2        tpb=   0.    v/deg k     tphp=   0.    v/deg k
     tref=  25.00   deg c 

   5*** noise parameters ***
       kf=   0.                  af=   1.00         

   ***  level   1  model parameters  ***

    level=   1.00                is=   1.00u amps         jsw=   0.    amps   
        n=   1.50               nbv=   1.50                ik=   0.    amp    
     area=   1.00                pj=   0.                 ikr=   0.    amp    
    expli=   0.    amps      explir=   0.    amps        jtun=   0.    amps   
   jtunsw=   0.    amps        ntun=  30.00         
  
 ********************************************************
 *** common model parameters model name:  10:diode1  ****
 ********************************************************

     names  values   units     names  values   units     names  values   units
     -----  ------   -----     -----  ------   -----     -----  ------   -----

   1*** dc breakdown parameters ***
       vb=   0.    volts        ibv=   1.00m amps   

   2*** parasitic resistance parameters ***
       rs=   0.    ohms   

   3*** capacitance parameters ***
       fc= 500.00m              fcs= 500.00m                m= 500.00m        
     mjsw= 330.00m               pb= 800.00m volts        php= 800.00m volts  
       tt=   0.    secs         cjo=   0.    f/area       cjp=   0.    f/pj   

   4*** temperature effect parameters ***
     tlev=   0.               tlevc=   0.                 tcv=   0.    v/deg k
      trs=   0.    /deg         cta=   0.    /deg         ctp=   0.    /deg   
      xti=   3.00            xtitun=   3.00               keg=   1.00         
       eg=   1.11  ev          gap1= 702.00u  ev/deg     gap2=   1.11k  deg   
     ttt1=   0.    /deg        ttt2=   0.    /deg2        tm1=   0.    /deg   
      tm2=   0.    /deg2        tpb=   0.    v/deg k     tphp=   0.    v/deg k
     tref=  25.00   deg c 

   5*** noise parameters ***
       kf=   0.                  af=   1.00         

   ***  level   1  model parameters  ***

    level=   1.00                is=   1.00u amps         jsw=   0.    amps   
        n=   1.50               nbv=   1.50                ik=   0.    amp    
     area=   1.00                pj=   0.                 ikr=   0.    amp    
    expli=   0.    amps      explir=   0.    amps        jtun=   0.    amps   
   jtunsw=   0.    amps        ntun=  30.00         
  
 ********************************************************
 *** common model parameters model name:  11:diode1  ****
 ********************************************************

     names  values   units     names  values   units     names  values   units
     -----  ------   -----     -----  ------   -----     -----  ------   -----

   1*** dc breakdown parameters ***
       vb=   0.    volts        ibv=   1.00m amps   

   2*** parasitic resistance parameters ***
       rs=   0.    ohms   

   3*** capacitance parameters ***
       fc= 500.00m              fcs= 500.00m                m= 500.00m        
     mjsw= 330.00m               pb= 800.00m volts        php= 800.00m volts  
       tt=   0.    secs         cjo=   0.    f/area       cjp=   0.    f/pj   

   4*** temperature effect parameters ***
     tlev=   0.               tlevc=   0.                 tcv=   0.    v/deg k
      trs=   0.    /deg         cta=   0.    /deg         ctp=   0.    /deg   
      xti=   3.00            xtitun=   3.00               keg=   1.00         
       eg=   1.11  ev          gap1= 702.00u  ev/deg     gap2=   1.11k  deg   
     ttt1=   0.    /deg        ttt2=   0.    /deg2        tm1=   0.    /deg   
      tm2=   0.    /deg2        tpb=   0.    v/deg k     tphp=   0.    v/deg k
     tref=  25.00   deg c 

   5*** noise parameters ***
       kf=   0.                  af=   1.00         

   ***  level   1  model parameters  ***

    level=   1.00                is=   1.00u amps         jsw=   0.    amps   
        n=   1.50               nbv=   1.50                ik=   0.    amp    
     area=   1.00                pj=   0.                 ikr=   0.    amp    
    expli=   0.    amps      explir=   0.    amps        jtun=   0.    amps   
   jtunsw=   0.    amps        ntun=  30.00         
  
 ********************************************************
 *** common model parameters model name:  12:diode1  ****
 ********************************************************

     names  values   units     names  values   units     names  values   units
     -----  ------   -----     -----  ------   -----     -----  ------   -----

   1*** dc breakdown parameters ***
       vb=   0.    volts        ibv=   1.00m amps   

   2*** parasitic resistance parameters ***
       rs=   0.    ohms   

   3*** capacitance parameters ***
       fc= 500.00m              fcs= 500.00m                m= 500.00m        
     mjsw= 330.00m               pb= 800.00m volts        php= 800.00m volts  
       tt=   0.    secs         cjo=   0.    f/area       cjp=   0.    f/pj   

   4*** temperature effect parameters ***
     tlev=   0.               tlevc=   0.                 tcv=   0.    v/deg k
      trs=   0.    /deg         cta=   0.    /deg         ctp=   0.    /deg   
      xti=   3.00            xtitun=   3.00               keg=   1.00         
       eg=   1.11  ev          gap1= 702.00u  ev/deg     gap2=   1.11k  deg   
     ttt1=   0.    /deg        ttt2=   0.    /deg2        tm1=   0.    /deg   
      tm2=   0.    /deg2        tpb=   0.    v/deg k     tphp=   0.    v/deg k
     tref=  25.00   deg c 

   5*** noise parameters ***
       kf=   0.                  af=   1.00         

   ***  level   1  model parameters  ***

    level=   1.00                is=   1.00u amps         jsw=   0.    amps   
        n=   1.50               nbv=   1.50                ik=   0.    amp    
     area=   1.00                pj=   0.                 ikr=   0.    amp    
    expli=   0.    amps      explir=   0.    amps        jtun=   0.    amps   
   jtunsw=   0.    amps        ntun=  30.00         
  
 ********************************************************
 *** common model parameters model name:  13:diode1  ****
 ********************************************************

     names  values   units     names  values   units     names  values   units
     -----  ------   -----     -----  ------   -----     -----  ------   -----

   1*** dc breakdown parameters ***
       vb=   0.    volts        ibv=   1.00m amps   

   2*** parasitic resistance parameters ***
       rs=   0.    ohms   

   3*** capacitance parameters ***
       fc= 500.00m              fcs= 500.00m                m= 500.00m        
     mjsw= 330.00m               pb= 800.00m volts        php= 800.00m volts  
       tt=   0.    secs         cjo=   0.    f/area       cjp=   0.    f/pj   

   4*** temperature effect parameters ***
     tlev=   0.               tlevc=   0.                 tcv=   0.    v/deg k
      trs=   0.    /deg         cta=   0.    /deg         ctp=   0.    /deg   
      xti=   3.00            xtitun=   3.00               keg=   1.00         
       eg=   1.11  ev          gap1= 702.00u  ev/deg     gap2=   1.11k  deg   
     ttt1=   0.    /deg        ttt2=   0.    /deg2        tm1=   0.    /deg   
      tm2=   0.    /deg2        tpb=   0.    v/deg k     tphp=   0.    v/deg k
     tref=  25.00   deg c 

   5*** noise parameters ***
       kf=   0.                  af=   1.00         

   ***  level   1  model parameters  ***

    level=   1.00                is=   1.00u amps         jsw=   0.    amps   
        n=   1.50               nbv=   1.50                ik=   0.    amp    
     area=   1.00                pj=   0.                 ikr=   0.    amp    
    expli=   0.    amps      explir=   0.    amps        jtun=   0.    amps   
   jtunsw=   0.    amps        ntun=  30.00         
  
 ********************************************************
 *** common model parameters model name:  14:diode1  ****
 ********************************************************

     names  values   units     names  values   units     names  values   units
     -----  ------   -----     -----  ------   -----     -----  ------   -----

   1*** dc breakdown parameters ***
       vb=   0.    volts        ibv=   1.00m amps   

   2*** parasitic resistance parameters ***
       rs=   0.    ohms   

   3*** capacitance parameters ***
       fc= 500.00m              fcs= 500.00m                m= 500.00m        
     mjsw= 330.00m               pb= 800.00m volts        php= 800.00m volts  
       tt=   0.    secs         cjo=   0.    f/area       cjp=   0.    f/pj   

   4*** temperature effect parameters ***
     tlev=   0.               tlevc=   0.                 tcv=   0.    v/deg k
      trs=   0.    /deg         cta=   0.    /deg         ctp=   0.    /deg   
      xti=   3.00            xtitun=   3.00               keg=   1.00         
       eg=   1.11  ev          gap1= 702.00u  ev/deg     gap2=   1.11k  deg   
     ttt1=   0.    /deg        ttt2=   0.    /deg2        tm1=   0.    /deg   
      tm2=   0.    /deg2        tpb=   0.    v/deg k     tphp=   0.    v/deg k
     tref=  25.00   deg c 

   5*** noise parameters ***
       kf=   0.                  af=   1.00         

   ***  level   1  model parameters  ***

    level=   1.00                is=   1.00u amps         jsw=   0.    amps   
        n=   1.50               nbv=   1.50                ik=   0.    amp    
     area=   1.00                pj=   0.                 ikr=   0.    amp    
    expli=   0.    amps      explir=   0.    amps        jtun=   0.    amps   
   jtunsw=   0.    amps        ntun=  30.00         
  
 ********************************************************
 *** common model parameters model name:  15:diode1  ****
 ********************************************************

     names  values   units     names  values   units     names  values   units
     -----  ------   -----     -----  ------   -----     -----  ------   -----

   1*** dc breakdown parameters ***
       vb=   0.    volts        ibv=   1.00m amps   

   2*** parasitic resistance parameters ***
       rs=   0.    ohms   

   3*** capacitance parameters ***
       fc= 500.00m              fcs= 500.00m                m= 500.00m        
     mjsw= 330.00m               pb= 800.00m volts        php= 800.00m volts  
       tt=   0.    secs         cjo=   0.    f/area       cjp=   0.    f/pj   

   4*** temperature effect parameters ***
     tlev=   0.               tlevc=   0.                 tcv=   0.    v/deg k
      trs=   0.    /deg         cta=   0.    /deg         ctp=   0.    /deg   
      xti=   3.00            xtitun=   3.00               keg=   1.00         
       eg=   1.11  ev          gap1= 702.00u  ev/deg     gap2=   1.11k  deg   
     ttt1=   0.    /deg        ttt2=   0.    /deg2        tm1=   0.    /deg   
      tm2=   0.    /deg2        tpb=   0.    v/deg k     tphp=   0.    v/deg k
     tref=  25.00   deg c 

   5*** noise parameters ***
       kf=   0.                  af=   1.00         

   ***  level   1  model parameters  ***

    level=   1.00                is=   1.00u amps         jsw=   0.    amps   
        n=   1.50               nbv=   1.50                ik=   0.    amp    
     area=   1.00                pj=   0.                 ikr=   0.    amp    
    expli=   0.    amps      explir=   0.    amps        jtun=   0.    amps   
   jtunsw=   0.    amps        ntun=  30.00         
  
 ********************************************************
 *** common model parameters model name:  16:diode1  ****
 ********************************************************

     names  values   units     names  values   units     names  values   units
     -----  ------   -----     -----  ------   -----     -----  ------   -----

   1*** dc breakdown parameters ***
       vb=   0.    volts        ibv=   1.00m amps   

   2*** parasitic resistance parameters ***
       rs=   0.    ohms   

   3*** capacitance parameters ***
       fc= 500.00m              fcs= 500.00m                m= 500.00m        
     mjsw= 330.00m               pb= 800.00m volts        php= 800.00m volts  
       tt=   0.    secs         cjo=   0.    f/area       cjp=   0.    f/pj   

   4*** temperature effect parameters ***
     tlev=   0.               tlevc=   0.                 tcv=   0.    v/deg k
      trs=   0.    /deg         cta=   0.    /deg         ctp=   0.    /deg   
      xti=   3.00            xtitun=   3.00               keg=   1.00         
       eg=   1.11  ev          gap1= 702.00u  ev/deg     gap2=   1.11k  deg   
     ttt1=   0.    /deg        ttt2=   0.    /deg2        tm1=   0.    /deg   
      tm2=   0.    /deg2        tpb=   0.    v/deg k     tphp=   0.    v/deg k
     tref=  25.00   deg c 

   5*** noise parameters ***
       kf=   0.                  af=   1.00         

   ***  level   1  model parameters  ***

    level=   1.00                is=   1.00u amps         jsw=   0.    amps   
        n=   1.50               nbv=   1.50                ik=   0.    amp    
     area=   1.00                pj=   0.                 ikr=   0.    amp    
    expli=   0.    amps      explir=   0.    amps        jtun=   0.    amps   
   jtunsw=   0.    amps        ntun=  30.00         
  
 ********************************************************
 *** common model parameters model name:  17:diode1  ****
 ********************************************************

     names  values   units     names  values   units     names  values   units
     -----  ------   -----     -----  ------   -----     -----  ------   -----

   1*** dc breakdown parameters ***
       vb=   0.    volts        ibv=   1.00m amps   

   2*** parasitic resistance parameters ***
       rs=   0.    ohms   

   3*** capacitance parameters ***
       fc= 500.00m              fcs= 500.00m                m= 500.00m        
     mjsw= 330.00m               pb= 800.00m volts        php= 800.00m volts  
       tt=   0.    secs         cjo=   0.    f/area       cjp=   0.    f/pj   

   4*** temperature effect parameters ***
     tlev=   0.               tlevc=   0.                 tcv=   0.    v/deg k
      trs=   0.    /deg         cta=   0.    /deg         ctp=   0.    /deg   
      xti=   3.00            xtitun=   3.00               keg=   1.00         
       eg=   1.11  ev          gap1= 702.00u  ev/deg     gap2=   1.11k  deg   
     ttt1=   0.    /deg        ttt2=   0.    /deg2        tm1=   0.    /deg   
      tm2=   0.    /deg2        tpb=   0.    v/deg k     tphp=   0.    v/deg k
     tref=  25.00   deg c 

   5*** noise parameters ***
       kf=   0.                  af=   1.00         

   ***  level   1  model parameters  ***

    level=   1.00                is=   1.00u amps         jsw=   0.    amps   
        n=   1.50               nbv=   1.50                ik=   0.    amp    
     area=   1.00                pj=   0.                 ikr=   0.    amp    
    expli=   0.    amps      explir=   0.    amps        jtun=   0.    amps   
   jtunsw=   0.    amps        ntun=  30.00         
  
 ********************************************************
 *** common model parameters model name:  18:diode1  ****
 ********************************************************

     names  values   units     names  values   units     names  values   units
     -----  ------   -----     -----  ------   -----     -----  ------   -----

   1*** dc breakdown parameters ***
       vb=   0.    volts        ibv=   1.00m amps   

   2*** parasitic resistance parameters ***
       rs=   0.    ohms   

   3*** capacitance parameters ***
       fc= 500.00m              fcs= 500.00m                m= 500.00m        
     mjsw= 330.00m               pb= 800.00m volts        php= 800.00m volts  
       tt=   0.    secs         cjo=   0.    f/area       cjp=   0.    f/pj   

   4*** temperature effect parameters ***
     tlev=   0.               tlevc=   0.                 tcv=   0.    v/deg k
      trs=   0.    /deg         cta=   0.    /deg         ctp=   0.    /deg   
      xti=   3.00            xtitun=   3.00               keg=   1.00         
       eg=   1.11  ev          gap1= 702.00u  ev/deg     gap2=   1.11k  deg   
     ttt1=   0.    /deg        ttt2=   0.    /deg2        tm1=   0.    /deg   
      tm2=   0.    /deg2        tpb=   0.    v/deg k     tphp=   0.    v/deg k
     tref=  25.00   deg c 

   5*** noise parameters ***
       kf=   0.                  af=   1.00         

   ***  level   1  model parameters  ***

    level=   1.00                is=   1.00u amps         jsw=   0.    amps   
        n=   1.50               nbv=   1.50                ik=   0.    amp    
     area=   1.00                pj=   0.                 ikr=   0.    amp    
    expli=   0.    amps      explir=   0.    amps        jtun=   0.    amps   
   jtunsw=   0.    amps        ntun=  30.00         
  
 ********************************************************
 *** common model parameters model name:  19:diode1  ****
 ********************************************************

     names  values   units     names  values   units     names  values   units
     -----  ------   -----     -----  ------   -----     -----  ------   -----

   1*** dc breakdown parameters ***
       vb=   0.    volts        ibv=   1.00m amps   

   2*** parasitic resistance parameters ***
       rs=   0.    ohms   

   3*** capacitance parameters ***
       fc= 500.00m              fcs= 500.00m                m= 500.00m        
     mjsw= 330.00m               pb= 800.00m volts        php= 800.00m volts  
       tt=   0.    secs         cjo=   0.    f/area       cjp=   0.    f/pj   

   4*** temperature effect parameters ***
     tlev=   0.               tlevc=   0.                 tcv=   0.    v/deg k
      trs=   0.    /deg         cta=   0.    /deg         ctp=   0.    /deg   
      xti=   3.00            xtitun=   3.00               keg=   1.00         
       eg=   1.11  ev          gap1= 702.00u  ev/deg     gap2=   1.11k  deg   
     ttt1=   0.    /deg        ttt2=   0.    /deg2        tm1=   0.    /deg   
      tm2=   0.    /deg2        tpb=   0.    v/deg k     tphp=   0.    v/deg k
     tref=  25.00   deg c 

   5*** noise parameters ***
       kf=   0.                  af=   1.00         

   ***  level   1  model parameters  ***

    level=   1.00                is=   1.00u amps         jsw=   0.    amps   
        n=   1.50               nbv=   1.50                ik=   0.    amp    
     area=   1.00                pj=   0.                 ikr=   0.    amp    
    expli=   0.    amps      explir=   0.    amps        jtun=   0.    amps   
   jtunsw=   0.    amps        ntun=  30.00         
  
 ********************************************************
 *** common model parameters model name:  20:diode1  ****
 ********************************************************

     names  values   units     names  values   units     names  values   units
     -----  ------   -----     -----  ------   -----     -----  ------   -----

   1*** dc breakdown parameters ***
       vb=   0.    volts        ibv=   1.00m amps   

   2*** parasitic resistance parameters ***
       rs=   0.    ohms   

   3*** capacitance parameters ***
       fc= 500.00m              fcs= 500.00m                m= 500.00m        
     mjsw= 330.00m               pb= 800.00m volts        php= 800.00m volts  
       tt=   0.    secs         cjo=   0.    f/area       cjp=   0.    f/pj   

   4*** temperature effect parameters ***
     tlev=   0.               tlevc=   0.                 tcv=   0.    v/deg k
      trs=   0.    /deg         cta=   0.    /deg         ctp=   0.    /deg   
      xti=   3.00            xtitun=   3.00               keg=   1.00         
       eg=   1.11  ev          gap1= 702.00u  ev/deg     gap2=   1.11k  deg   
     ttt1=   0.    /deg        ttt2=   0.    /deg2        tm1=   0.    /deg   
      tm2=   0.    /deg2        tpb=   0.    v/deg k     tphp=   0.    v/deg k
     tref=  25.00   deg c 

   5*** noise parameters ***
       kf=   0.                  af=   1.00         

   ***  level   1  model parameters  ***

    level=   1.00                is=   1.00u amps         jsw=   0.    amps   
        n=   1.50               nbv=   1.50                ik=   0.    amp    
     area=   1.00                pj=   0.                 ikr=   0.    amp    
    expli=   0.    amps      explir=   0.    amps        jtun=   0.    amps   
   jtunsw=   0.    amps        ntun=  30.00         
  
 ********************************************************
 *** common model parameters model name:  21:diode1  ****
 ********************************************************

     names  values   units     names  values   units     names  values   units
     -----  ------   -----     -----  ------   -----     -----  ------   -----

   1*** dc breakdown parameters ***
       vb=   0.    volts        ibv=   1.00m amps   

   2*** parasitic resistance parameters ***
       rs=   0.    ohms   

   3*** capacitance parameters ***
       fc= 500.00m              fcs= 500.00m                m= 500.00m        
     mjsw= 330.00m               pb= 800.00m volts        php= 800.00m volts  
       tt=   0.    secs         cjo=   0.    f/area       cjp=   0.    f/pj   

   4*** temperature effect parameters ***
     tlev=   0.               tlevc=   0.                 tcv=   0.    v/deg k
      trs=   0.    /deg         cta=   0.    /deg         ctp=   0.    /deg   
      xti=   3.00            xtitun=   3.00               keg=   1.00         
       eg=   1.11  ev          gap1= 702.00u  ev/deg     gap2=   1.11k  deg   
     ttt1=   0.    /deg        ttt2=   0.    /deg2        tm1=   0.    /deg   
      tm2=   0.    /deg2        tpb=   0.    v/deg k     tphp=   0.    v/deg k
     tref=  25.00   deg c 

   5*** noise parameters ***
       kf=   0.                  af=   1.00         

   ***  level   1  model parameters  ***

    level=   1.00                is=   1.00u amps         jsw=   0.    amps   
        n=   1.50               nbv=   1.50                ik=   0.    amp    
     area=   1.00                pj=   0.                 ikr=   0.    amp    
    expli=   0.    amps      explir=   0.    amps        jtun=   0.    amps   
   jtunsw=   0.    amps        ntun=  30.00         
  
 ********************************************************
 *** common model parameters model name:  22:diode1  ****
 ********************************************************

     names  values   units     names  values   units     names  values   units
     -----  ------   -----     -----  ------   -----     -----  ------   -----

   1*** dc breakdown parameters ***
       vb=   0.    volts        ibv=   1.00m amps   

   2*** parasitic resistance parameters ***
       rs=   0.    ohms   

   3*** capacitance parameters ***
       fc= 500.00m              fcs= 500.00m                m= 500.00m        
     mjsw= 330.00m               pb= 800.00m volts        php= 800.00m volts  
       tt=   0.    secs         cjo=   0.    f/area       cjp=   0.    f/pj   

   4*** temperature effect parameters ***
     tlev=   0.               tlevc=   0.                 tcv=   0.    v/deg k
      trs=   0.    /deg         cta=   0.    /deg         ctp=   0.    /deg   
      xti=   3.00            xtitun=   3.00               keg=   1.00         
       eg=   1.11  ev          gap1= 702.00u  ev/deg     gap2=   1.11k  deg   
     ttt1=   0.    /deg        ttt2=   0.    /deg2        tm1=   0.    /deg   
      tm2=   0.    /deg2        tpb=   0.    v/deg k     tphp=   0.    v/deg k
     tref=  25.00   deg c 

   5*** noise parameters ***
       kf=   0.                  af=   1.00         

   ***  level   1  model parameters  ***

    level=   1.00                is=   1.00u amps         jsw=   0.    amps   
        n=   1.50               nbv=   1.50                ik=   0.    amp    
     area=   1.00                pj=   0.                 ikr=   0.    amp    
    expli=   0.    amps      explir=   0.    amps        jtun=   0.    amps   
   jtunsw=   0.    amps        ntun=  30.00         
  
 ********************************************************
 *** common model parameters model name:  23:diode1  ****
 ********************************************************

     names  values   units     names  values   units     names  values   units
     -----  ------   -----     -----  ------   -----     -----  ------   -----

   1*** dc breakdown parameters ***
       vb=   0.    volts        ibv=   1.00m amps   

   2*** parasitic resistance parameters ***
       rs=   0.    ohms   

   3*** capacitance parameters ***
       fc= 500.00m              fcs= 500.00m                m= 500.00m        
     mjsw= 330.00m               pb= 800.00m volts        php= 800.00m volts  
       tt=   0.    secs         cjo=   0.    f/area       cjp=   0.    f/pj   

   4*** temperature effect parameters ***
     tlev=   0.               tlevc=   0.                 tcv=   0.    v/deg k
      trs=   0.    /deg         cta=   0.    /deg         ctp=   0.    /deg   
      xti=   3.00            xtitun=   3.00               keg=   1.00         
       eg=   1.11  ev          gap1= 702.00u  ev/deg     gap2=   1.11k  deg   
     ttt1=   0.    /deg        ttt2=   0.    /deg2        tm1=   0.    /deg   
      tm2=   0.    /deg2        tpb=   0.    v/deg k     tphp=   0.    v/deg k
     tref=  25.00   deg c 

   5*** noise parameters ***
       kf=   0.                  af=   1.00         

   ***  level   1  model parameters  ***

    level=   1.00                is=   1.00u amps         jsw=   0.    amps   
        n=   1.50               nbv=   1.50                ik=   0.    amp    
     area=   1.00                pj=   0.                 ikr=   0.    amp    
    expli=   0.    amps      explir=   0.    amps        jtun=   0.    amps   
   jtunsw=   0.    amps        ntun=  30.00         
  
 ********************************************************
 *** common model parameters model name:  24:diode1  ****
 ********************************************************

     names  values   units     names  values   units     names  values   units
     -----  ------   -----     -----  ------   -----     -----  ------   -----

   1*** dc breakdown parameters ***
       vb=   0.    volts        ibv=   1.00m amps   

   2*** parasitic resistance parameters ***
       rs=   0.    ohms   

   3*** capacitance parameters ***
       fc= 500.00m              fcs= 500.00m                m= 500.00m        
     mjsw= 330.00m               pb= 800.00m volts        php= 800.00m volts  
       tt=   0.    secs         cjo=   0.    f/area       cjp=   0.    f/pj   

   4*** temperature effect parameters ***
     tlev=   0.               tlevc=   0.                 tcv=   0.    v/deg k
      trs=   0.    /deg         cta=   0.    /deg         ctp=   0.    /deg   
      xti=   3.00            xtitun=   3.00               keg=   1.00         
       eg=   1.11  ev          gap1= 702.00u  ev/deg     gap2=   1.11k  deg   
     ttt1=   0.    /deg        ttt2=   0.    /deg2        tm1=   0.    /deg   
      tm2=   0.    /deg2        tpb=   0.    v/deg k     tphp=   0.    v/deg k
     tref=  25.00   deg c 

   5*** noise parameters ***
       kf=   0.                  af=   1.00         

   ***  level   1  model parameters  ***

    level=   1.00                is=   1.00u amps         jsw=   0.    amps   
        n=   1.50               nbv=   1.50                ik=   0.    amp    
     area=   1.00                pj=   0.                 ikr=   0.    amp    
    expli=   0.    amps      explir=   0.    amps        jtun=   0.    amps   
   jtunsw=   0.    amps        ntun=  30.00         
  
 ********************************************************
 *** common model parameters model name:  25:diode1  ****
 ********************************************************

     names  values   units     names  values   units     names  values   units
     -----  ------   -----     -----  ------   -----     -----  ------   -----

   1*** dc breakdown parameters ***
       vb=   0.    volts        ibv=   1.00m amps   

   2*** parasitic resistance parameters ***
       rs=   0.    ohms   

   3*** capacitance parameters ***
       fc= 500.00m              fcs= 500.00m                m= 500.00m        
     mjsw= 330.00m               pb= 800.00m volts        php= 800.00m volts  
       tt=   0.    secs         cjo=   0.    f/area       cjp=   0.    f/pj   

   4*** temperature effect parameters ***
     tlev=   0.               tlevc=   0.                 tcv=   0.    v/deg k
      trs=   0.    /deg         cta=   0.    /deg         ctp=   0.    /deg   
      xti=   3.00            xtitun=   3.00               keg=   1.00         
       eg=   1.11  ev          gap1= 702.00u  ev/deg     gap2=   1.11k  deg   
     ttt1=   0.    /deg        ttt2=   0.    /deg2        tm1=   0.    /deg   
      tm2=   0.    /deg2        tpb=   0.    v/deg k     tphp=   0.    v/deg k
     tref=  25.00   deg c 

   5*** noise parameters ***
       kf=   0.                  af=   1.00         

   ***  level   1  model parameters  ***

    level=   1.00                is=   1.00u amps         jsw=   0.    amps   
        n=   1.50               nbv=   1.50                ik=   0.    amp    
     area=   1.00                pj=   0.                 ikr=   0.    amp    
    expli=   0.    amps      explir=   0.    amps        jtun=   0.    amps   
   jtunsw=   0.    amps        ntun=  30.00         
  
 ********************************************************
 *** common model parameters model name:  26:diode1  ****
 ********************************************************

     names  values   units     names  values   units     names  values   units
     -----  ------   -----     -----  ------   -----     -----  ------   -----

   1*** dc breakdown parameters ***
       vb=   0.    volts        ibv=   1.00m amps   

   2*** parasitic resistance parameters ***
       rs=   0.    ohms   

   3*** capacitance parameters ***
       fc= 500.00m              fcs= 500.00m                m= 500.00m        
     mjsw= 330.00m               pb= 800.00m volts        php= 800.00m volts  
       tt=   0.    secs         cjo=   0.    f/area       cjp=   0.    f/pj   

   4*** temperature effect parameters ***
     tlev=   0.               tlevc=   0.                 tcv=   0.    v/deg k
      trs=   0.    /deg         cta=   0.    /deg         ctp=   0.    /deg   
      xti=   3.00            xtitun=   3.00               keg=   1.00         
       eg=   1.11  ev          gap1= 702.00u  ev/deg     gap2=   1.11k  deg   
     ttt1=   0.    /deg        ttt2=   0.    /deg2        tm1=   0.    /deg   
      tm2=   0.    /deg2        tpb=   0.    v/deg k     tphp=   0.    v/deg k
     tref=  25.00   deg c 

   5*** noise parameters ***
       kf=   0.                  af=   1.00         

   ***  level   1  model parameters  ***

    level=   1.00                is=   1.00u amps         jsw=   0.    amps   
        n=   1.50               nbv=   1.50                ik=   0.    amp    
     area=   1.00                pj=   0.                 ikr=   0.    amp    
    expli=   0.    amps      explir=   0.    amps        jtun=   0.    amps   
   jtunsw=   0.    amps        ntun=  30.00         
  
 ********************************************************
 *** common model parameters model name:  27:diode1  ****
 ********************************************************

     names  values   units     names  values   units     names  values   units
     -----  ------   -----     -----  ------   -----     -----  ------   -----

   1*** dc breakdown parameters ***
       vb=   0.    volts        ibv=   1.00m amps   

   2*** parasitic resistance parameters ***
       rs=   0.    ohms   

   3*** capacitance parameters ***
       fc= 500.00m              fcs= 500.00m                m= 500.00m        
     mjsw= 330.00m               pb= 800.00m volts        php= 800.00m volts  
       tt=   0.    secs         cjo=   0.    f/area       cjp=   0.    f/pj   

   4*** temperature effect parameters ***
     tlev=   0.               tlevc=   0.                 tcv=   0.    v/deg k
      trs=   0.    /deg         cta=   0.    /deg         ctp=   0.    /deg   
      xti=   3.00            xtitun=   3.00               keg=   1.00         
       eg=   1.11  ev          gap1= 702.00u  ev/deg     gap2=   1.11k  deg   
     ttt1=   0.    /deg        ttt2=   0.    /deg2        tm1=   0.    /deg   
      tm2=   0.    /deg2        tpb=   0.    v/deg k     tphp=   0.    v/deg k
     tref=  25.00   deg c 

   5*** noise parameters ***
       kf=   0.                  af=   1.00         

   ***  level   1  model parameters  ***

    level=   1.00                is=   1.00u amps         jsw=   0.    amps   
        n=   1.50               nbv=   1.50                ik=   0.    amp    
     area=   1.00                pj=   0.                 ikr=   0.    amp    
    expli=   0.    amps      explir=   0.    amps        jtun=   0.    amps   
   jtunsw=   0.    amps        ntun=  30.00         
  
 ********************************************************
 *** common model parameters model name:  28:diode1  ****
 ********************************************************

     names  values   units     names  values   units     names  values   units
     -----  ------   -----     -----  ------   -----     -----  ------   -----

   1*** dc breakdown parameters ***
       vb=   0.    volts        ibv=   1.00m amps   

   2*** parasitic resistance parameters ***
       rs=   0.    ohms   

   3*** capacitance parameters ***
       fc= 500.00m              fcs= 500.00m                m= 500.00m        
     mjsw= 330.00m               pb= 800.00m volts        php= 800.00m volts  
       tt=   0.    secs         cjo=   0.    f/area       cjp=   0.    f/pj   

   4*** temperature effect parameters ***
     tlev=   0.               tlevc=   0.                 tcv=   0.    v/deg k
      trs=   0.    /deg         cta=   0.    /deg         ctp=   0.    /deg   
      xti=   3.00            xtitun=   3.00               keg=   1.00         
       eg=   1.11  ev          gap1= 702.00u  ev/deg     gap2=   1.11k  deg   
     ttt1=   0.    /deg        ttt2=   0.    /deg2        tm1=   0.    /deg   
      tm2=   0.    /deg2        tpb=   0.    v/deg k     tphp=   0.    v/deg k
     tref=  25.00   deg c 

   5*** noise parameters ***
       kf=   0.                  af=   1.00         

   ***  level   1  model parameters  ***

    level=   1.00                is=   1.00u amps         jsw=   0.    amps   
        n=   1.50               nbv=   1.50                ik=   0.    amp    
     area=   1.00                pj=   0.                 ikr=   0.    amp    
    expli=   0.    amps      explir=   0.    amps        jtun=   0.    amps   
   jtunsw=   0.    amps        ntun=  30.00         
  
 ********************************************************
 *** common model parameters model name:  29:diode1  ****
 ********************************************************

     names  values   units     names  values   units     names  values   units
     -----  ------   -----     -----  ------   -----     -----  ------   -----

   1*** dc breakdown parameters ***
       vb=   0.    volts        ibv=   1.00m amps   

   2*** parasitic resistance parameters ***
       rs=   0.    ohms   

   3*** capacitance parameters ***
       fc= 500.00m              fcs= 500.00m                m= 500.00m        
     mjsw= 330.00m               pb= 800.00m volts        php= 800.00m volts  
       tt=   0.    secs         cjo=   0.    f/area       cjp=   0.    f/pj   

   4*** temperature effect parameters ***
     tlev=   0.               tlevc=   0.                 tcv=   0.    v/deg k
      trs=   0.    /deg         cta=   0.    /deg         ctp=   0.    /deg   
      xti=   3.00            xtitun=   3.00               keg=   1.00         
       eg=   1.11  ev          gap1= 702.00u  ev/deg     gap2=   1.11k  deg   
     ttt1=   0.    /deg        ttt2=   0.    /deg2        tm1=   0.    /deg   
      tm2=   0.    /deg2        tpb=   0.    v/deg k     tphp=   0.    v/deg k
     tref=  25.00   deg c 

   5*** noise parameters ***
       kf=   0.                  af=   1.00         

   ***  level   1  model parameters  ***

    level=   1.00                is=   1.00u amps         jsw=   0.    amps   
        n=   1.50               nbv=   1.50                ik=   0.    amp    
     area=   1.00                pj=   0.                 ikr=   0.    amp    
    expli=   0.    amps      explir=   0.    amps        jtun=   0.    amps   
   jtunsw=   0.    amps        ntun=  30.00         
  
 ********************************************************
 *** common model parameters model name:  30:diode1  ****
 ********************************************************

     names  values   units     names  values   units     names  values   units
     -----  ------   -----     -----  ------   -----     -----  ------   -----

   1*** dc breakdown parameters ***
       vb=   0.    volts        ibv=   1.00m amps   

   2*** parasitic resistance parameters ***
       rs=   0.    ohms   

   3*** capacitance parameters ***
       fc= 500.00m              fcs= 500.00m                m= 500.00m        
     mjsw= 330.00m               pb= 800.00m volts        php= 800.00m volts  
       tt=   0.    secs         cjo=   0.    f/area       cjp=   0.    f/pj   

   4*** temperature effect parameters ***
     tlev=   0.               tlevc=   0.                 tcv=   0.    v/deg k
      trs=   0.    /deg         cta=   0.    /deg         ctp=   0.    /deg   
      xti=   3.00            xtitun=   3.00               keg=   1.00         
       eg=   1.11  ev          gap1= 702.00u  ev/deg     gap2=   1.11k  deg   
     ttt1=   0.    /deg        ttt2=   0.    /deg2        tm1=   0.    /deg   
      tm2=   0.    /deg2        tpb=   0.    v/deg k     tphp=   0.    v/deg k
     tref=  25.00   deg c 

   5*** noise parameters ***
       kf=   0.                  af=   1.00         

   ***  level   1  model parameters  ***

    level=   1.00                is=   1.00u amps         jsw=   0.    amps   
        n=   1.50               nbv=   1.50                ik=   0.    amp    
     area=   1.00                pj=   0.                 ikr=   0.    amp    
    expli=   0.    amps      explir=   0.    amps        jtun=   0.    amps   
   jtunsw=   0.    amps        ntun=  30.00         
  
 ********************************************************
 *** common model parameters model name:  31:diode1  ****
 ********************************************************

     names  values   units     names  values   units     names  values   units
     -----  ------   -----     -----  ------   -----     -----  ------   -----

   1*** dc breakdown parameters ***
       vb=   0.    volts        ibv=   1.00m amps   

   2*** parasitic resistance parameters ***
       rs=   0.    ohms   

   3*** capacitance parameters ***
       fc= 500.00m              fcs= 500.00m                m= 500.00m        
     mjsw= 330.00m               pb= 800.00m volts        php= 800.00m volts  
       tt=   0.    secs         cjo=   0.    f/area       cjp=   0.    f/pj   

   4*** temperature effect parameters ***
     tlev=   0.               tlevc=   0.                 tcv=   0.    v/deg k
      trs=   0.    /deg         cta=   0.    /deg         ctp=   0.    /deg   
      xti=   3.00            xtitun=   3.00               keg=   1.00         
       eg=   1.11  ev          gap1= 702.00u  ev/deg     gap2=   1.11k  deg   
     ttt1=   0.    /deg        ttt2=   0.    /deg2        tm1=   0.    /deg   
      tm2=   0.    /deg2        tpb=   0.    v/deg k     tphp=   0.    v/deg k
     tref=  25.00   deg c 

   5*** noise parameters ***
       kf=   0.                  af=   1.00         

   ***  level   1  model parameters  ***

    level=   1.00                is=   1.00u amps         jsw=   0.    amps   
        n=   1.50               nbv=   1.50                ik=   0.    amp    
     area=   1.00                pj=   0.                 ikr=   0.    amp    
    expli=   0.    amps      explir=   0.    amps        jtun=   0.    amps   
   jtunsw=   0.    amps        ntun=  30.00         
  
 ********************************************************
 *** common model parameters model name:  32:diode1  ****
 ********************************************************

     names  values   units     names  values   units     names  values   units
     -----  ------   -----     -----  ------   -----     -----  ------   -----

   1*** dc breakdown parameters ***
       vb=   0.    volts        ibv=   1.00m amps   

   2*** parasitic resistance parameters ***
       rs=   0.    ohms   

   3*** capacitance parameters ***
       fc= 500.00m              fcs= 500.00m                m= 500.00m        
     mjsw= 330.00m               pb= 800.00m volts        php= 800.00m volts  
       tt=   0.    secs         cjo=   0.    f/area       cjp=   0.    f/pj   

   4*** temperature effect parameters ***
     tlev=   0.               tlevc=   0.                 tcv=   0.    v/deg k
      trs=   0.    /deg         cta=   0.    /deg         ctp=   0.    /deg   
      xti=   3.00            xtitun=   3.00               keg=   1.00         
       eg=   1.11  ev          gap1= 702.00u  ev/deg     gap2=   1.11k  deg   
     ttt1=   0.    /deg        ttt2=   0.    /deg2        tm1=   0.    /deg   
      tm2=   0.    /deg2        tpb=   0.    v/deg k     tphp=   0.    v/deg k
     tref=  25.00   deg c 

   5*** noise parameters ***
       kf=   0.                  af=   1.00         

   ***  level   1  model parameters  ***

    level=   1.00                is=   1.00u amps         jsw=   0.    amps   
        n=   1.50               nbv=   1.50                ik=   0.    amp    
     area=   1.00                pj=   0.                 ikr=   0.    amp    
    expli=   0.    amps      explir=   0.    amps        jtun=   0.    amps   
   jtunsw=   0.    amps        ntun=  30.00         
  
 ********************************************************
 *** common model parameters model name:  33:diode1  ****
 ********************************************************

     names  values   units     names  values   units     names  values   units
     -----  ------   -----     -----  ------   -----     -----  ------   -----

   1*** dc breakdown parameters ***
       vb=   0.    volts        ibv=   1.00m amps   

   2*** parasitic resistance parameters ***
       rs=   0.    ohms   

   3*** capacitance parameters ***
       fc= 500.00m              fcs= 500.00m                m= 500.00m        
     mjsw= 330.00m               pb= 800.00m volts        php= 800.00m volts  
       tt=   0.    secs         cjo=   0.    f/area       cjp=   0.    f/pj   

   4*** temperature effect parameters ***
     tlev=   0.               tlevc=   0.                 tcv=   0.    v/deg k
      trs=   0.    /deg         cta=   0.    /deg         ctp=   0.    /deg   
      xti=   3.00            xtitun=   3.00               keg=   1.00         
       eg=   1.11  ev          gap1= 702.00u  ev/deg     gap2=   1.11k  deg   
     ttt1=   0.    /deg        ttt2=   0.    /deg2        tm1=   0.    /deg   
      tm2=   0.    /deg2        tpb=   0.    v/deg k     tphp=   0.    v/deg k
     tref=  25.00   deg c 

   5*** noise parameters ***
       kf=   0.                  af=   1.00         

   ***  level   1  model parameters  ***

    level=   1.00                is=   1.00u amps         jsw=   0.    amps   
        n=   1.50               nbv=   1.50                ik=   0.    amp    
     area=   1.00                pj=   0.                 ikr=   0.    amp    
    expli=   0.    amps      explir=   0.    amps        jtun=   0.    amps   
   jtunsw=   0.    amps        ntun=  30.00         
  
 ********************************************************
 *** common model parameters model name:  34:diode1  ****
 ********************************************************

     names  values   units     names  values   units     names  values   units
     -----  ------   -----     -----  ------   -----     -----  ------   -----

   1*** dc breakdown parameters ***
       vb=   0.    volts        ibv=   1.00m amps   

   2*** parasitic resistance parameters ***
       rs=   0.    ohms   

   3*** capacitance parameters ***
       fc= 500.00m              fcs= 500.00m                m= 500.00m        
     mjsw= 330.00m               pb= 800.00m volts        php= 800.00m volts  
       tt=   0.    secs         cjo=   0.    f/area       cjp=   0.    f/pj   

   4*** temperature effect parameters ***
     tlev=   0.               tlevc=   0.                 tcv=   0.    v/deg k
      trs=   0.    /deg         cta=   0.    /deg         ctp=   0.    /deg   
      xti=   3.00            xtitun=   3.00               keg=   1.00         
       eg=   1.11  ev          gap1= 702.00u  ev/deg     gap2=   1.11k  deg   
     ttt1=   0.    /deg        ttt2=   0.    /deg2        tm1=   0.    /deg   
      tm2=   0.    /deg2        tpb=   0.    v/deg k     tphp=   0.    v/deg k
     tref=  25.00   deg c 

   5*** noise parameters ***
       kf=   0.                  af=   1.00         

   ***  level   1  model parameters  ***

    level=   1.00                is=   1.00u amps         jsw=   0.    amps   
        n=   1.50               nbv=   1.50                ik=   0.    amp    
     area=   1.00                pj=   0.                 ikr=   0.    amp    
    expli=   0.    amps      explir=   0.    amps        jtun=   0.    amps   
   jtunsw=   0.    amps        ntun=  30.00         
  
 ********************************************************
 *** common model parameters model name:  35:diode1  ****
 ********************************************************

     names  values   units     names  values   units     names  values   units
     -----  ------   -----     -----  ------   -----     -----  ------   -----

   1*** dc breakdown parameters ***
       vb=   0.    volts        ibv=   1.00m amps   

   2*** parasitic resistance parameters ***
       rs=   0.    ohms   

   3*** capacitance parameters ***
       fc= 500.00m              fcs= 500.00m                m= 500.00m        
     mjsw= 330.00m               pb= 800.00m volts        php= 800.00m volts  
       tt=   0.    secs         cjo=   0.    f/area       cjp=   0.    f/pj   

   4*** temperature effect parameters ***
     tlev=   0.               tlevc=   0.                 tcv=   0.    v/deg k
      trs=   0.    /deg         cta=   0.    /deg         ctp=   0.    /deg   
      xti=   3.00            xtitun=   3.00               keg=   1.00         
       eg=   1.11  ev          gap1= 702.00u  ev/deg     gap2=   1.11k  deg   
     ttt1=   0.    /deg        ttt2=   0.    /deg2        tm1=   0.    /deg   
      tm2=   0.    /deg2        tpb=   0.    v/deg k     tphp=   0.    v/deg k
     tref=  25.00   deg c 

   5*** noise parameters ***
       kf=   0.                  af=   1.00         

   ***  level   1  model parameters  ***

    level=   1.00                is=   1.00u amps         jsw=   0.    amps   
        n=   1.50               nbv=   1.50                ik=   0.    amp    
     area=   1.00                pj=   0.                 ikr=   0.    amp    
    expli=   0.    amps      explir=   0.    amps        jtun=   0.    amps   
   jtunsw=   0.    amps        ntun=  30.00         
  
 ********************************************************
 *** common model parameters model name:  36:diode1  ****
 ********************************************************

     names  values   units     names  values   units     names  values   units
     -----  ------   -----     -----  ------   -----     -----  ------   -----

   1*** dc breakdown parameters ***
       vb=   0.    volts        ibv=   1.00m amps   

   2*** parasitic resistance parameters ***
       rs=   0.    ohms   

   3*** capacitance parameters ***
       fc= 500.00m              fcs= 500.00m                m= 500.00m        
     mjsw= 330.00m               pb= 800.00m volts        php= 800.00m volts  
       tt=   0.    secs         cjo=   0.    f/area       cjp=   0.    f/pj   

   4*** temperature effect parameters ***
     tlev=   0.               tlevc=   0.                 tcv=   0.    v/deg k
      trs=   0.    /deg         cta=   0.    /deg         ctp=   0.    /deg   
      xti=   3.00            xtitun=   3.00               keg=   1.00         
       eg=   1.11  ev          gap1= 702.00u  ev/deg     gap2=   1.11k  deg   
     ttt1=   0.    /deg        ttt2=   0.    /deg2        tm1=   0.    /deg   
      tm2=   0.    /deg2        tpb=   0.    v/deg k     tphp=   0.    v/deg k
     tref=  25.00   deg c 

   5*** noise parameters ***
       kf=   0.                  af=   1.00         

   ***  level   1  model parameters  ***

    level=   1.00                is=   1.00u amps         jsw=   0.    amps   
        n=   1.50               nbv=   1.50                ik=   0.    amp    
     area=   1.00                pj=   0.                 ikr=   0.    amp    
    expli=   0.    amps      explir=   0.    amps        jtun=   0.    amps   
   jtunsw=   0.    amps        ntun=  30.00         
  
 ********************************************************
 *** common model parameters model name:  37:diode1  ****
 ********************************************************

     names  values   units     names  values   units     names  values   units
     -----  ------   -----     -----  ------   -----     -----  ------   -----

   1*** dc breakdown parameters ***
       vb=   0.    volts        ibv=   1.00m amps   

   2*** parasitic resistance parameters ***
       rs=   0.    ohms   

   3*** capacitance parameters ***
       fc= 500.00m              fcs= 500.00m                m= 500.00m        
     mjsw= 330.00m               pb= 800.00m volts        php= 800.00m volts  
       tt=   0.    secs         cjo=   0.    f/area       cjp=   0.    f/pj   

   4*** temperature effect parameters ***
     tlev=   0.               tlevc=   0.                 tcv=   0.    v/deg k
      trs=   0.    /deg         cta=   0.    /deg         ctp=   0.    /deg   
      xti=   3.00            xtitun=   3.00               keg=   1.00         
       eg=   1.11  ev          gap1= 702.00u  ev/deg     gap2=   1.11k  deg   
     ttt1=   0.    /deg        ttt2=   0.    /deg2        tm1=   0.    /deg   
      tm2=   0.    /deg2        tpb=   0.    v/deg k     tphp=   0.    v/deg k
     tref=  25.00   deg c 

   5*** noise parameters ***
       kf=   0.                  af=   1.00         

   ***  level   1  model parameters  ***

    level=   1.00                is=   1.00u amps         jsw=   0.    amps   
        n=   1.50               nbv=   1.50                ik=   0.    amp    
     area=   1.00                pj=   0.                 ikr=   0.    amp    
    expli=   0.    amps      explir=   0.    amps        jtun=   0.    amps   
   jtunsw=   0.    amps        ntun=  30.00         
  
 ********************************************************
 *** common model parameters model name:  38:diode1  ****
 ********************************************************

     names  values   units     names  values   units     names  values   units
     -----  ------   -----     -----  ------   -----     -----  ------   -----

   1*** dc breakdown parameters ***
       vb=   0.    volts        ibv=   1.00m amps   

   2*** parasitic resistance parameters ***
       rs=   0.    ohms   

   3*** capacitance parameters ***
       fc= 500.00m              fcs= 500.00m                m= 500.00m        
     mjsw= 330.00m               pb= 800.00m volts        php= 800.00m volts  
       tt=   0.    secs         cjo=   0.    f/area       cjp=   0.    f/pj   

[...]
   57.84500      57.8450    -186.7487   
   57.85000      57.8500    -186.7788   
   57.85500      57.8550    -186.8090   
   57.86000      57.8600    -186.8391   
   57.86500      57.8650    -186.8692   
   57.87000      57.8700    -186.8993   
   57.87500      57.8750    -186.9295   
   57.88000      57.8800    -186.9596   
   57.88500      57.8850    -186.9897   
   57.89000      57.8900    -187.0198   
   57.89500      57.8950    -187.0499   
   57.90000      57.9000    -187.0801   
   57.90500      57.9050    -187.1102   
   57.91000      57.9100    -187.1403   
   57.91500      57.9150    -187.1704   
   57.92000      57.9200    -187.2006   
   57.92500      57.9250    -187.2307   
   57.93000      57.9300    -187.2608   
   57.93500      57.9350    -187.2909   
   57.94000      57.9400    -187.3211   
   57.94500      57.9450    -187.3512   
   57.95000      57.9500    -187.3813   
   57.95500      57.9550    -187.4114   
   57.96000      57.9600    -187.4416   
   57.96500      57.9650    -187.4717   
   57.97000      57.9700    -187.5018   
   57.97500      57.9750    -187.5319   
   57.98000      57.9800    -187.5621   
   57.98500      57.9850    -187.5922   
   57.99000      57.9900    -187.6223   
   57.99500      57.9950    -187.6525   
   58.00000      58.0000    -187.6826   
   58.00500      58.0050    -187.7127   
   58.01000      58.0100    -187.7428   
   58.01500      58.0150    -187.7730   
   58.02000      58.0200    -187.8031   
   58.02500      58.0250    -187.8332   
   58.03000      58.0300    -187.8634   
   58.03500      58.0350    -187.8935   
   58.04000      58.0400    -187.9236   
   58.04500      58.0450    -187.9537   
   58.05000      58.0500    -187.9839   
   58.05500      58.0550    -188.0140   
   58.06000      58.0600    -188.0441   
   58.06500      58.0650    -188.0743   
   58.07000      58.0700    -188.1044   
   58.07500      58.0750    -188.1345   
   58.08000      58.0800    -188.1647   
   58.08500      58.0850    -188.1948   
   58.09000      58.0900    -188.2249   
   58.09500      58.0950    -188.2551   
   58.10000      58.1000    -188.2852   
   58.10500      58.1050    -188.3153   
   58.11000      58.1100    -188.3454   
   58.11500      58.1150    -188.3756   
   58.12000      58.1200    -188.4057   
   58.12500      58.1250    -188.4358   
   58.13000      58.1300    -188.4660   
   58.13500      58.1350    -188.4961   
   58.14000      58.1400    -188.5262   
   58.14500      58.1450    -188.5564   
   58.15000      58.1500    -188.5865   
   58.15500      58.1550    -188.6167   
   58.16000      58.1600    -188.6468   
   58.16500      58.1650    -188.6769   
   58.17000      58.1700    -188.7071   
   58.17500      58.1750    -188.7372   
   58.18000      58.1800    -188.7673   
   58.18500      58.1850    -188.7975   
   58.19000      58.1900    -188.8276   
   58.19500      58.1950    -188.8577   
   58.20000      58.2000    -188.8879   
   58.20500      58.2050    -188.9180   
   58.21000      58.2100    -188.9481   
   58.21500      58.2150    -188.9783   
   58.22000      58.2200    -189.0084   
   58.22500      58.2250    -189.0386   
   58.23000      58.2300    -189.0687   
   58.23500      58.2350    -189.0988   
   58.24000      58.2400    -189.1290   
   58.24500      58.2450    -189.1591   
   58.25000      58.2500    -189.1893   
   58.25500      58.2550    -189.2194   
   58.26000      58.2600    -189.2495   
   58.26500      58.2650    -189.2797   
   58.27000      58.2700    -189.3098   
   58.27500      58.2750    -189.3400   
   58.28000      58.2800    -189.3701   
   58.28500      58.2850    -189.4002   
   58.29000      58.2900    -189.4304   
   58.29500      58.2950    -189.4605   
   58.30000      58.3000    -189.4907   
   58.30500      58.3050    -189.5208   
   58.31000      58.3100    -189.5509   
   58.31500      58.3150    -189.5811   
   58.32000      58.3200    -189.6112   
   58.32500      58.3250    -189.6414   
   58.33000      58.3300    -189.6715   
   58.33500      58.3350    -189.7016   
   58.34000      58.3400    -189.7318   
   58.34500      58.3450    -189.7619   
   58.35000      58.3500    -189.7921   
   58.35500      58.3550    -189.8222   
   58.36000      58.3600    -189.8524   
   58.36500      58.3650    -189.8825   
   58.37000      58.3700    -189.9127   
   58.37500      58.3750    -189.9428   
   58.38000      58.3800    -189.9729   
   58.38500      58.3850    -190.0031   
   58.39000      58.3900    -190.0332   
   58.39500      58.3950    -190.0634   
   58.40000      58.4000    -190.0935   
   58.40500      58.4050    -190.1237   
   58.41000      58.4100    -190.1538   
   58.41500      58.4150    -190.1840   
   58.42000      58.4200    -190.2141   
   58.42500      58.4250    -190.2443   
   58.43000      58.4300    -190.2744   
   58.43500      58.4350    -190.3045   
   58.44000      58.4400    -190.3347   
   58.44500      58.4450    -190.3648   
   58.45000      58.4500    -190.3950   
   58.45500      58.4550    -190.4251   
   58.46000      58.4600    -190.4553   
   58.46500      58.4650    -190.4854   
   58.47000      58.4700    -190.5156   
   58.47500      58.4750    -190.5457   
   58.48000      58.4800    -190.5759   
   58.48500      58.4850    -190.6060   
   58.49000      58.4900    -190.6362   
   58.49500      58.4950    -190.6663   
   58.50000      58.5000    -190.6965   
   58.50500      58.5050    -190.7266   
   58.51000      58.5100    -190.7568   
   58.51500      58.5150    -190.7869   
   58.52000      58.5200    -190.8171   
   58.52500      58.5250    -190.8472   
   58.53000      58.5300    -190.8774   
   58.53500      58.5350    -190.9075   
   58.54000      58.5400    -190.9377   
   58.54500      58.5450    -190.9678   
   58.55000      58.5500    -190.9980   
   58.55500      58.5550    -191.0281   
   58.56000      58.5600    -191.0583   
   58.56500      58.5650    -191.0884   
   58.57000      58.5700    -191.1186   
   58.57500      58.5750    -191.1488   
   58.58000      58.5800    -191.1789   
   58.58500      58.5850    -191.2091   
   58.59000      58.5900    -191.2392   
   58.59500      58.5950    -191.2694   
   58.60000      58.6000    -191.2995   
   58.60500      58.6050    -191.3297   
   58.61000      58.6100    -191.3598   
   58.61500      58.6150    -191.3900   
   58.62000      58.6200    -191.4201   
   58.62500      58.6250    -191.4503   
   58.63000      58.6300    -191.4805   
   58.63500      58.6350    -191.5106   
   58.64000      58.6400    -191.5408   
   58.64500      58.6450    -191.5709   
   58.65000      58.6500    -191.6011   
   58.65500      58.6550    -191.6312   
   58.66000      58.6600    -191.6614   
   58.66500      58.6650    -191.6915   
   58.67000      58.6700    -191.7217   
   58.67500      58.6750    -191.7519   
   58.68000      58.6800    -191.7820   
   58.68500      58.6850    -191.8122   
   58.69000      58.6900    -191.8423   
   58.69500      58.6950    -191.8725   
   58.70000      58.7000    -191.9027   
   58.70500      58.7050    -191.9328   
   58.71000      58.7100    -191.9630   
   58.71500      58.7150    -191.9931   
   58.72000      58.7200    -192.0233   
   58.72500      58.7250    -192.0535   
   58.73000      58.7300    -192.0836   
   58.73500      58.7350    -192.1138   
   58.74000      58.7400    -192.1439   
   58.74500      58.7450    -192.1741   
   58.75000      58.7500    -192.2043   
   58.75500      58.7550    -192.2344   
   58.76000      58.7600    -192.2646   
   58.76500      58.7650    -192.2947   
   58.77000      58.7700    -192.3249   
   58.77500      58.7750    -192.3551   
   58.78000      58.7800    -192.3852   
   58.78500      58.7850    -192.4154   
   58.79000      58.7900    -192.4455   
   58.79500      58.7950    -192.4757   
   58.80000      58.8000    -192.5059   
   58.80500      58.8050    -192.5360   
   58.81000      58.8100    -192.5662   
   58.81500      58.8150    -192.5964   
   58.82000      58.8200    -192.6265   
   58.82500      58.8250    -192.6567   
   58.83000      58.8300    -192.6869   
   58.83500      58.8350    -192.7170   
   58.84000      58.8400    -192.7472   
   58.84500      58.8450    -192.7773   
   58.85000      58.8500    -192.8075   
   58.85500      58.8550    -192.8377   
   58.86000      58.8600    -192.8678   
   58.86500      58.8650    -192.8980   
   58.87000      58.8700    -192.9282   
   58.87500      58.8750    -192.9583   
   58.88000      58.8800    -192.9885   
   58.88500      58.8850    -193.0187   
   58.89000      58.8900    -193.0488   
   58.89500      58.8950    -193.0790   
   58.90000      58.9000    -193.1092   
   58.90500      58.9050    -193.1393   
   58.91000      58.9100    -193.1695   
   58.91500      58.9150    -193.1997   
   58.92000      58.9200    -193.2298   
   58.92500      58.9250    -193.2600   
   58.93000      58.9300    -193.2902   
   58.93500      58.9350    -193.3204   
   58.94000      58.9400    -193.3505   
   58.94500      58.9450    -193.3807   
   58.95000      58.9500    -193.4109   
   58.95500      58.9550    -193.4410   
   58.96000      58.9600    -193.4712   
   58.96500      58.9650    -193.5014   
   58.97000      58.9700    -193.5315   
   58.97500      58.9750    -193.5617   
   58.98000      58.9800    -193.5919   
   58.98500      58.9850    -193.6220   
   58.99000      58.9900    -193.6522   
   58.99500      58.9950    -193.6824   
   59.00000      59.0000    -193.7126   
   59.00500      59.0050    -193.7427   
   59.01000      59.0100    -193.7729   
   59.01500      59.0150    -193.8031   
   59.02000      59.0200    -193.8333   
   59.02500      59.0250    -193.8634   
   59.03000      59.0300    -193.8936   
   59.03500      59.0350    -193.9238   
   59.04000      59.0400    -193.9539   
   59.04500      59.0450    -193.9841   
   59.05000      59.0500    -194.0143   
   59.05500      59.0550    -194.0445   
   59.06000      59.0600    -194.0746   
   59.06500      59.0650    -194.1048   
   59.07000      59.0700    -194.1350   
   59.07500      59.0750    -194.1652   
   59.08000      59.0800    -194.1953   
   59.08500      59.0850    -194.2255   
   59.09000      59.0900    -194.2557   
   59.09500      59.0950    -194.2859   
   59.10000      59.1000    -194.3160   
   59.10500      59.1050    -194.3462   
   59.11000      59.1100    -194.3764   
   59.11500      59.1150    -194.4066   
   59.12000      59.1200    -194.4367   
   59.12500      59.1250    -194.4669   
   59.13000      59.1300    -194.4971   
   59.13500      59.1350    -194.5273   
   59.14000      59.1400    -194.5574   
   59.14500      59.1450    -194.5876   
   59.15000      59.1500    -194.6178   
   59.15500      59.1550    -194.6480   
   59.16000      59.1600    -194.6782   
   59.16500      59.1650    -194.7083   
   59.17000      59.1700    -194.7385   
   59.17500      59.1750    -194.7687   
   59.18000      59.1800    -194.7989   
   59.18500      59.1850    -194.8291   
   59.19000      59.1900    -194.8592   
   59.19500      59.1950    -194.8894   
   59.20000      59.2000    -194.9196   
   59.20500      59.2050    -194.9498   
   59.21000      59.2100    -194.9800   
   59.21500      59.2150    -195.0101   
   59.22000      59.2200    -195.0403   
   59.22500      59.2250    -195.0705   
   59.23000      59.2300    -195.1007   
   59.23500      59.2350    -195.1309   
   59.24000      59.2400    -195.1610   
   59.24500      59.2450    -195.1912   
   59.25000      59.2500    -195.2214   
   59.25500      59.2550    -195.2516   
   59.26000      59.2600    -195.2818   
   59.26500      59.2650    -195.3120   
   59.27000      59.2700    -195.3421   
   59.27500      59.2750    -195.3723   
   59.28000      59.2800    -195.4025   
   59.28500      59.2850    -195.4327   
   59.29000      59.2900    -195.4629   
   59.29500      59.2950    -195.4931   
   59.30000      59.3000    -195.5232   
   59.30500      59.3050    -195.5534   
   59.31000      59.3100    -195.5836   
   59.31500      59.3150    -195.6138   
   59.32000      59.3200    -195.6440   
   59.32500      59.3250    -195.6742   
   59.33000      59.3300    -195.7043   
   59.33500      59.3350    -195.7345   
   59.34000      59.3400    -195.7647   
   59.34500      59.3450    -195.7949   
   59.35000      59.3500    -195.8251   
   59.35500      59.3550    -195.8553   
   59.36000      59.3600    -195.8855   
   59.36500      59.3650    -195.9156   
   59.37000      59.3700    -195.9458   
   59.37500      59.3750    -195.9760   
   59.38000      59.3800    -196.0062   
   59.38500      59.3850    -196.0364   
   59.39000      59.3900    -196.0666   
   59.39500      59.3950    -196.0968   
   59.40000      59.4000    -196.1270   
   59.40500      59.4050    -196.1572   
   59.41000      59.4100    -196.1873   
   59.41500      59.4150    -196.2175   
   59.42000      59.4200    -196.2477   
   59.42500      59.4250    -196.2779   
   59.43000      59.4300    -196.3081   
   59.43500      59.4350    -196.3383   
   59.44000      59.4400    -196.3685   
   59.44500      59.4450    -196.3987   
   59.45000      59.4500    -196.4289   
   59.45500      59.4550    -196.4590   
   59.46000      59.4600    -196.4892   
   59.46500      59.4650    -196.5194   
   59.47000      59.4700    -196.5496   
   59.47500      59.4750    -196.5798   
   59.48000      59.4800    -196.6100   
   59.48500      59.4850    -196.6402   
   59.49000      59.4900    -196.6704   
   59.49500      59.4950    -196.7006   
   59.50000      59.5000    -196.7308   
   59.50500      59.5050    -196.7610   
   59.51000      59.5100    -196.7912   
   59.51500      59.5150    -196.8213   
   59.52000      59.5200    -196.8515   
   59.52500      59.5250    -196.8817   
   59.53000      59.5300    -196.9119   
   59.53500      59.5350    -196.9421   
   59.54000      59.5400    -196.9723   
   59.54500      59.5450    -197.0025   
   59.55000      59.5500    -197.0327   
   59.55500      59.5550    -197.0629   
   59.56000      59.5600    -197.0931   
   59.56500      59.5650    -197.1233   
   59.57000      59.5700    -197.1535   
   59.57500      59.5750    -197.1837   
   59.58000      59.5800    -197.2139   
   59.58500      59.5850    -197.2441   
   59.59000      59.5900    -197.2743   
   59.59500      59.5950    -197.3045   
   59.60000      59.6000    -197.3347   
   59.60500      59.6050    -197.3649   
   59.61000      59.6100    -197.3951   
   59.61500      59.6150    -197.4253   
   59.62000      59.6200    -197.4554   
   59.62500      59.6250    -197.4856   
   59.63000      59.6300    -197.5158   
   59.63500      59.6350    -197.5460   
   59.64000      59.6400    -197.5762   
   59.64500      59.6450    -197.6064   
   59.65000      59.6500    -197.6366   
   59.65500      59.6550    -197.6668   
   59.66000      59.6600    -197.6970   
   59.66500      59.6650    -197.7272   
   59.67000      59.6700    -197.7574   
   59.67500      59.6750    -197.7876   
   59.68000      59.6800    -197.8178   
   59.68500      59.6850    -197.8480   
   59.69000      59.6900    -197.8782   
   59.69500      59.6950    -197.9084   
   59.70000      59.7000    -197.9386   
   59.70500      59.7050    -197.9688   
   59.71000      59.7100    -197.9990   
   59.71500      59.7150    -198.0292   
   59.72000      59.7200    -198.0594   
   59.72500      59.7250    -198.0896   
   59.73000      59.7300    -198.1198   
   59.73500      59.7350    -198.1500   
   59.74000      59.7400    -198.1802   
   59.74500      59.7450    -198.2104   
   59.75000      59.7500    -198.2407   
   59.75500      59.7550    -198.2709   
   59.76000      59.7600    -198.3011   
   59.76500      59.7650    -198.3313   
   59.77000      59.7700    -198.3615   
   59.77500      59.7750    -198.3917   
   59.78000      59.7800    -198.4219   
   59.78500      59.7850    -198.4521   
   59.79000      59.7900    -198.4823   
   59.79500      59.7950    -198.5125   
   59.80000      59.8000    -198.5427   
   59.80500      59.8050    -198.5729   
   59.81000      59.8100    -198.6031   
   59.81500      59.8150    -198.6333   
   59.82000      59.8200    -198.6635   
   59.82500      59.8250    -198.6937   
   59.83000      59.8300    -198.7239   
   59.83500      59.8350    -198.7541   
   59.84000      59.8400    -198.7843   
   59.84500      59.8450    -198.8145   
   59.85000      59.8500    -198.8447   
   59.85500      59.8550    -198.8750   
   59.86000      59.8600    -198.9052   
   59.86500      59.8650    -198.9354   
   59.87000      59.8700    -198.9656   
   59.87500      59.8750    -198.9958   
   59.88000      59.8800    -199.0260   
   59.88500      59.8850    -199.0562   
   59.89000      59.8900    -199.0864   
   59.89500      59.8950    -199.1166   
   59.90000      59.9000    -199.1468   
   59.90500      59.9050    -199.1770   
   59.91000      59.9100    -199.2072   
   59.91500      59.9150    -199.2375   
   59.92000      59.9200    -199.2677   
   59.92500      59.9250    -199.2979   
   59.93000      59.9300    -199.3281   
   59.93500      59.9350    -199.3583   
   59.94000      59.9400    -199.3885   
   59.94500      59.9450    -199.4187   
   59.95000      59.9500    -199.4489   
   59.95500      59.9550    -199.4791   
   59.96000      59.9600    -199.5093   
   59.96500      59.9650    -199.5396   
   59.97000      59.9700    -199.5698   
   59.97500      59.9750    -199.6000   
   59.98000      59.9800    -199.6302   
   59.98500      59.9850    -199.6604   
   59.99000      59.9900    -199.6906   
   59.99500      59.9950    -199.7208   
   60.00000      60.0000    -199.7510   
y

          ***** job concluded
1****** HSPICE -- C-2009.03-SP1 32-BIT (May 25 2009) winnt ******               
 ******  
 ** 40 cascaded, 2 paralleled cells

  ******  job statistics summary tnom=  25.000 temp=  25.000 *****

  ******  HSPICE Threads Information  ******
  Command Line Threads Count                  :     1
  Available CPU Count                         :     8
  Actual Model Evaluation(Load) Threads Count :     1
  Actual Solver Threads Count                 :     1


  ******  Circuit Statistics  ******
  # nodes       =     160 # elements   =     327
  # resistors   =     160 # capacitors =       0 # inductors   =       0
  # mutual_inds =       0 # vccs       =       0 # vcvs        =       0
  # cccs        =       0 # ccvs       =       0 # volt_srcs   =       1
  # curr_srcs   =      80 # diodes     =      86 # bjts        =       0
  # jfets       =       0 # mosfets    =       0 # U elements  =       0
  # T elements  =       0 # W elements =       0 # B elements  =       0
  # S elements  =       0 # P elements =       0 # va device   =       0


  ******  Runtime Statistics (seconds)  ******

  analysis           time    # points   tot. iter  conv.iter
  op point           0.00           1           0
  dc sweep           4.35       12001       24075
  readin             0.10
  errchk             0.02
  setup              0.03
  output             0.04


           total memory used          689  kbytes
           total cpu time            4.58 seconds
           total elapsed time        4.62 seconds
           job started at     16:53:54 06/23/2015
           job ended   at     16:53:59 06/23/2015


 Init: hspice initialization file: C:\synopsys\Hspice_C-2009.03-SP1\hspice.ini
  lic: Release hspice token(s) 
