 ****** HSPICE -- C-2009.03-SP1 32-BIT (May 25 2009) winnt ******               
  Copyright (C) 2009 Synopsys, Inc. All Rights Reserved.                        
  Unpublished-rights reserved under US copyright laws.
  This program is protected by law and is subject to the 
  terms and conditions of the license agreement from Synopsys.
  Use of this program is your acceptance to be bound by the 
  license agreement. HSPICE is the trademark of Synopsys, Inc.
  Input File: C:\Users\Administrator\Desktop\MultiLevel\gtModel.sp              
  lic:  
  lic: FLEXlm: v8.5b 
  lic: USER:   Administrator        HOSTNAME: WIN-HBGPFB5Q4D3 
  lic: HOSTID: "002268384615 005056c00001 005056c00008" PID:      7128 
  lic: Using FLEXlm license file: 
  lic: C:\synopsys\hspice_2009-03.lic 
  lic: Checkout 1 hspice 
  lic: License/Maintenance for hspice will expire on 31-dec-2020/2007.9 
  lic: NODE LOCKED license on hostid "002268384615 005056c00001 005056c00008" 
  lic:   
 Init: read install configuration file: C:\synopsys\Hspice_C-2009.03-SP1\meta.cfg
 Init: hspice initialization file: C:\synopsys\Hspice_C-2009.03-SP1\hspice.ini




1****** HSPICE -- C-2009.03-SP1 32-BIT (May 25 2009) winnt ******               
 ******  
 ** 30 cascaded, 4 paralleled cells

  ******  circuit name directory
 circuit number to circuit name directory
   number circuitname                     definition         multiplier
        0 main circuit
        1 xu11.                           cell5              1.00 
        2 xu21.                           cell5              1.00 
        3 xu31.                           cell5              1.00 
        4 xu41.                           cell5              1.00 
        5 xu51.                           cell5              1.00 
        6 xu61.                           cell4              1.00 
        7 xu71.                           cell4              1.00 
        8 xu81.                           cell4              1.00 
        9 xu91.                           cell4              1.00 
       10 xu101.                          cell4              1.00 
       11 xu111.                          cell4              1.00 
       12 xu121.                          cell4              1.00 
       13 xu131.                          cell4              1.00 
       14 xu141.                          cell3              1.00 
       15 xu151.                          cell2              1.00 
       16 xu161.                          cell2              1.00 
       17 xu171.                          cell2              1.00 
       18 xu181.                          cell2              1.00 
       19 xu191.                          cell1              1.00 
       20 xu201.                          cell1              1.00 
       21 xu211.                          cell1              1.00 
       22 xu221.                          cell1              1.00 
       23 xu231.                          cell1              1.00 
       24 xu241.                          cell1              1.00 
       25 xu251.                          cell1              1.00 
       26 xu261.                          cell1              1.00 
       27 xu271.                          cell1              1.00 
       28 xu281.                          cell2              1.00 
       29 xu291.                          cell2              1.00 
       30 xu301.                          cell3              1.00 
       31 xu12.                           cell5              1.00 
       32 xu22.                           cell5              1.00 
       33 xu32.                           cell5              1.00 
       34 xu42.                           cell5              1.00 
       35 xu52.                           cell5              1.00 
       36 xu62.                           cell5              1.00 
       37 xu72.                           cell4              1.00 
       38 xu82.                           cell4              1.00 
       39 xu92.                           cell4              1.00 
       40 xu102.                          cell4              1.00 
       41 xu112.                          cell4              1.00 
       42 xu122.                          cell3              1.00 
       43 xu132.                          cell3              1.00 
       44 xu142.                          cell2              1.00 
       45 xu152.                          cell2              1.00 
       46 xu162.                          cell2              1.00 
       47 xu172.                          cell2              1.00 
       48 xu182.                          cell1              1.00 
       49 xu192.                          cell1              1.00 
       50 xu202.                          cell1              1.00 
       51 xu212.                          cell1              1.00 
       52 xu222.                          cell2              1.00 
       53 xu232.                          cell1              1.00 
       54 xu242.                          cell1              1.00 
       55 xu252.                          cell1              1.00 
       56 xu262.                          cell1              1.00 
       57 xu272.                          cell1              1.00 
       58 xu282.                          cell1              1.00 
       59 xu292.                          cell2              1.00 
       60 xu302.                          cell3              1.00 
       61 xu13.                           cell5              1.00 
       62 xu23.                           cell5              1.00 
       63 xu33.                           cell5              1.00 
       64 xu43.                           cell5              1.00 
       65 xu53.                           cell5              1.00 
       66 xu63.                           cell5              1.00 
       67 xu73.                           cell4              1.00 
       68 xu83.                           cell4              1.00 
       69 xu93.                           cell4              1.00 
       70 xu103.                          cell4              1.00 
       71 xu113.                          cell4              1.00 
       72 xu123.                          cell3              1.00 
       73 xu133.                          cell3              1.00 
       74 xu143.                          cell3              1.00 
       75 xu153.                          cell2              1.00 
       76 xu163.                          cell2              1.00 
       77 xu173.                          cell2              1.00 
       78 xu183.                          cell2              1.00 
       79 xu193.                          cell1              1.00 
       80 xu203.                          cell1              1.00 
       81 xu213.                          cell1              1.00 
       82 xu223.                          cell1              1.00 
       83 xu233.                          cell1              1.00 
       84 xu243.                          cell1              1.00 
       85 xu253.                          cell1              1.00 
       86 xu263.                          cell5              1.00 
       87 xu273.                          cell1              1.00 
       88 xu283.                          cell2              1.00 
       89 xu293.                          cell2              1.00 
       90 xu303.                          cell3              1.00 
       91 xu14.                           cell5              1.00 
       92 xu24.                           cell5              1.00 
       93 xu34.                           cell5              1.00 
       94 xu44.                           cell5              1.00 
       95 xu54.                           cell5              1.00 
       96 xu64.                           cell5              1.00 
       97 xu74.                           cell4              1.00 
       98 xu84.                           cell4              1.00 
       99 xu94.                           cell4              1.00 
      100 xu104.                          cell4              1.00 
      101 xu114.                          cell4              1.00 
      102 xu124.                          cell4              1.00 
      103 xu134.                          cell3              1.00 
      104 xu144.                          cell3              1.00 
      105 xu154.                          cell2              1.00 
      106 xu164.                          cell2              1.00 
      107 xu174.                          cell2              1.00 
      108 xu184.                          cell2              1.00 
      109 xu194.                          cell1              1.00 
      110 xu204.                          cell1              1.00 
      111 xu214.                          cell1              1.00 
      112 xu224.                          cell1              1.00 
      113 xu234.                          cell1              1.00 
      114 xu244.                          cell1              1.00 
      115 xu254.                          cell1              1.00 
      116 xu264.                          cell1              1.00 
      117 xu274.                          cell1              1.00 
      118 xu284.                          cell2              1.00 
      119 xu294.                          cell2              1.00 
      120 xu304.                          cell3              1.00 
1****** HSPICE -- C-2009.03-SP1 32-BIT (May 25 2009) winnt ******               
 ******  
 ** 30 cascaded, 4 paralleled cells

  ******  diode model parameters tnom=  25.000 temp=  25.000 *****
 ********************************************************
 *** common model parameters model name:   0:diode_b1****
 ********************************************************

     names  values   units     names  values   units     names  values   units
     -----  ------   -----     -----  ------   -----     -----  ------   -----

   1*** dc breakdown parameters ***
       vb=   0.    volts        ibv=   1.00m amps   

   2*** parasitic resistance parameters ***
       rs=   0.    ohms   

   3*** capacitance parameters ***
       fc= 500.00m              fcs= 500.00m                m= 500.00m        
     mjsw= 330.00m               pb= 800.00m volts        php= 800.00m volts  
       tt=   0.    secs         cjo=   0.    f/area       cjp=   0.    f/pj   

   4*** temperature effect parameters ***
     tlev=   0.               tlevc=   0.                 tcv=   0.    v/deg k
      trs=   0.    /deg         cta=   0.    /deg         ctp=   0.    /deg   
      xti=   3.00            xtitun=   3.00               keg=   1.00         
       eg=   1.11  ev          gap1= 702.00u  ev/deg     gap2=   1.11k  deg   
     ttt1=   0.    /deg        ttt2=   0.    /deg2        tm1=   0.    /deg   
      tm2=   0.    /deg2        tpb=   0.    v/deg k     tphp=   0.    v/deg k
     tref=  25.00   deg c 

   5*** noise parameters ***
       kf=   0.                  af=   1.00         

   ***  level   1  model parameters  ***

    level=   1.00                is=  10.00u amps         jsw=   0.    amps   
        n=   1.00               nbv=   1.00                ik=   0.    amp    
     area=   1.00                pj=   0.                 ikr=   0.    amp    
    expli=   0.    amps      explir=   0.    amps        jtun=   0.    amps   
   jtunsw=   0.    amps        ntun=  30.00         
  
 ********************************************************
 *** common model parameters model name:   0:diode_b2****
 ********************************************************

     names  values   units     names  values   units     names  values   units
     -----  ------   -----     -----  ------   -----     -----  ------   -----

   1*** dc breakdown parameters ***
       vb=   0.    volts        ibv=   1.00m amps   

   2*** parasitic resistance parameters ***
       rs=   0.    ohms   

   3*** capacitance parameters ***
       fc= 500.00m              fcs= 500.00m                m= 500.00m        
     mjsw= 330.00m               pb= 800.00m volts        php= 800.00m volts  
       tt=   0.    secs         cjo=   0.    f/area       cjp=   0.    f/pj   

   4*** temperature effect parameters ***
     tlev=   0.               tlevc=   0.                 tcv=   0.    v/deg k
      trs=   0.    /deg         cta=   0.    /deg         ctp=   0.    /deg   
      xti=   3.00            xtitun=   3.00               keg=   1.00         
       eg=   1.11  ev          gap1= 702.00u  ev/deg     gap2=   1.11k  deg   
     ttt1=   0.    /deg        ttt2=   0.    /deg2        tm1=   0.    /deg   
      tm2=   0.    /deg2        tpb=   0.    v/deg k     tphp=   0.    v/deg k
     tref=  25.00   deg c 

   5*** noise parameters ***
       kf=   0.                  af=   1.00         

   ***  level   1  model parameters  ***

    level=   1.00                is=  10.00u amps         jsw=   0.    amps   
        n=   1.00               nbv=   1.00                ik=   0.    amp    
     area=   1.00                pj=   0.                 ikr=   0.    amp    
    expli=   0.    amps      explir=   0.    amps        jtun=   0.    amps   
   jtunsw=   0.    amps        ntun=  30.00         
  
 ********************************************************
 *** common model parameters model name:   0:diode_b3****
 ********************************************************

     names  values   units     names  values   units     names  values   units
     -----  ------   -----     -----  ------   -----     -----  ------   -----

   1*** dc breakdown parameters ***
       vb=   0.    volts        ibv=   1.00m amps   

   2*** parasitic resistance parameters ***
       rs=   0.    ohms   

   3*** capacitance parameters ***
       fc= 500.00m              fcs= 500.00m                m= 500.00m        
     mjsw= 330.00m               pb= 800.00m volts        php= 800.00m volts  
       tt=   0.    secs         cjo=   0.    f/area       cjp=   0.    f/pj   

   4*** temperature effect parameters ***
     tlev=   0.               tlevc=   0.                 tcv=   0.    v/deg k
      trs=   0.    /deg         cta=   0.    /deg         ctp=   0.    /deg   
      xti=   3.00            xtitun=   3.00               keg=   1.00         
       eg=   1.11  ev          gap1= 702.00u  ev/deg     gap2=   1.11k  deg   
     ttt1=   0.    /deg        ttt2=   0.    /deg2        tm1=   0.    /deg   
      tm2=   0.    /deg2        tpb=   0.    v/deg k     tphp=   0.    v/deg k
     tref=  25.00   deg c 

   5*** noise parameters ***
       kf=   0.                  af=   1.00         

   ***  level   1  model parameters  ***

    level=   1.00                is=  10.00u amps         jsw=   0.    amps   
        n=   1.00               nbv=   1.00                ik=   0.    amp    
     area=   1.00                pj=   0.                 ikr=   0.    amp    
    expli=   0.    amps      explir=   0.    amps        jtun=   0.    amps   
   jtunsw=   0.    amps        ntun=  30.00         
  
 ********************************************************
 *** common model parameters model name:   0:diode_b4****
 ********************************************************

     names  values   units     names  values   units     names  values   units
     -----  ------   -----     -----  ------   -----     -----  ------   -----

   1*** dc breakdown parameters ***
       vb=   0.    volts        ibv=   1.00m amps   

   2*** parasitic resistance parameters ***
       rs=   0.    ohms   

   3*** capacitance parameters ***
       fc= 500.00m              fcs= 500.00m                m= 500.00m        
     mjsw= 330.00m               pb= 800.00m volts        php= 800.00m volts  
       tt=   0.    secs         cjo=   0.    f/area       cjp=   0.    f/pj   

   4*** temperature effect parameters ***
     tlev=   0.               tlevc=   0.                 tcv=   0.    v/deg k
      trs=   0.    /deg         cta=   0.    /deg         ctp=   0.    /deg   
      xti=   3.00            xtitun=   3.00               keg=   1.00         
       eg=   1.11  ev          gap1= 702.00u  ev/deg     gap2=   1.11k  deg   
     ttt1=   0.    /deg        ttt2=   0.    /deg2        tm1=   0.    /deg   
      tm2=   0.    /deg2        tpb=   0.    v/deg k     tphp=   0.    v/deg k
     tref=  25.00   deg c 

   5*** noise parameters ***
       kf=   0.                  af=   1.00         

   ***  level   1  model parameters  ***

    level=   1.00                is=  10.00u amps         jsw=   0.    amps   
        n=   1.00               nbv=   1.00                ik=   0.    amp    
     area=   1.00                pj=   0.                 ikr=   0.    amp    
    expli=   0.    amps      explir=   0.    amps        jtun=   0.    amps   
   jtunsw=   0.    amps        ntun=  30.00         
  
 ********************************************************
 *** common model parameters model name:   1:diode1  ****
 ********************************************************

     names  values   units     names  values   units     names  values   units
     -----  ------   -----     -----  ------   -----     -----  ------   -----

   1*** dc breakdown parameters ***
       vb=   0.    volts        ibv=   1.00m amps   

   2*** parasitic resistance parameters ***
       rs=   0.    ohms   

   3*** capacitance parameters ***
       fc= 500.00m              fcs= 500.00m                m= 500.00m        
     mjsw= 330.00m               pb= 800.00m volts        php= 800.00m volts  
       tt=   0.    secs         cjo=   0.    f/area       cjp=   0.    f/pj   

   4*** temperature effect parameters ***
     tlev=   0.               tlevc=   0.                 tcv=   0.    v/deg k
      trs=   0.    /deg         cta=   0.    /deg         ctp=   0.    /deg   
      xti=   3.00            xtitun=   3.00               keg=   1.00         
       eg=   1.11  ev          gap1= 702.00u  ev/deg     gap2=   1.11k  deg   
     ttt1=   0.    /deg        ttt2=   0.    /deg2        tm1=   0.    /deg   
      tm2=   0.    /deg2        tpb=   0.    v/deg k     tphp=   0.    v/deg k
     tref=  25.00   deg c 

   5*** noise parameters ***
       kf=   0.                  af=   1.00         

   ***  level   1  model parameters  ***

    level=   1.00                is=   1.00u amps         jsw=   0.    amps   
        n=   1.50               nbv=   1.50                ik=   0.    amp    
     area=   1.00                pj=   0.                 ikr=   0.    amp    
    expli=   0.    amps      explir=   0.    amps        jtun=   0.    amps   
   jtunsw=   0.    amps        ntun=  30.00         
  
 ********************************************************
 *** common model parameters model name:   2:diode1  ****
 ********************************************************

     names  values   units     names  values   units     names  values   units
     -----  ------   -----     -----  ------   -----     -----  ------   -----

   1*** dc breakdown parameters ***
       vb=   0.    volts        ibv=   1.00m amps   

   2*** parasitic resistance parameters ***
       rs=   0.    ohms   

   3*** capacitance parameters ***
       fc= 500.00m              fcs= 500.00m                m= 500.00m        
     mjsw= 330.00m               pb= 800.00m volts        php= 800.00m volts  
       tt=   0.    secs         cjo=   0.    f/area       cjp=   0.    f/pj   

   4*** temperature effect parameters ***
     tlev=   0.               tlevc=   0.                 tcv=   0.    v/deg k
      trs=   0.    /deg         cta=   0.    /deg         ctp=   0.    /deg   
      xti=   3.00            xtitun=   3.00               keg=   1.00         
       eg=   1.11  ev          gap1= 702.00u  ev/deg     gap2=   1.11k  deg   
     ttt1=   0.    /deg        ttt2=   0.    /deg2        tm1=   0.    /deg   
      tm2=   0.    /deg2        tpb=   0.    v/deg k     tphp=   0.    v/deg k
     tref=  25.00   deg c 

   5*** noise parameters ***
       kf=   0.                  af=   1.00         

   ***  level   1  model parameters  ***

    level=   1.00                is=   1.00u amps         jsw=   0.    amps   
        n=   1.50               nbv=   1.50                ik=   0.    amp    
     area=   1.00                pj=   0.                 ikr=   0.    amp    
    expli=   0.    amps      explir=   0.    amps        jtun=   0.    amps   
   jtunsw=   0.    amps        ntun=  30.00         
  
 ********************************************************
 *** common model parameters model name:   3:diode1  ****
 ********************************************************

     names  values   units     names  values   units     names  values   units
     -----  ------   -----     -----  ------   -----     -----  ------   -----

   1*** dc breakdown parameters ***
       vb=   0.    volts        ibv=   1.00m amps   

   2*** parasitic resistance parameters ***
       rs=   0.    ohms   

   3*** capacitance parameters ***
       fc= 500.00m              fcs= 500.00m                m= 500.00m        
     mjsw= 330.00m               pb= 800.00m volts        php= 800.00m volts  
       tt=   0.    secs         cjo=   0.    f/area       cjp=   0.    f/pj   

   4*** temperature effect parameters ***
     tlev=   0.               tlevc=   0.                 tcv=   0.    v/deg k
      trs=   0.    /deg         cta=   0.    /deg         ctp=   0.    /deg   
      xti=   3.00            xtitun=   3.00               keg=   1.00         
       eg=   1.11  ev          gap1= 702.00u  ev/deg     gap2=   1.11k  deg   
     ttt1=   0.    /deg        ttt2=   0.    /deg2        tm1=   0.    /deg   
      tm2=   0.    /deg2        tpb=   0.    v/deg k     tphp=   0.    v/deg k
     tref=  25.00   deg c 

   5*** noise parameters ***
       kf=   0.                  af=   1.00         

   ***  level   1  model parameters  ***

    level=   1.00                is=   1.00u amps         jsw=   0.    amps   
        n=   1.50               nbv=   1.50                ik=   0.    amp    
     area=   1.00                pj=   0.                 ikr=   0.    amp    
    expli=   0.    amps      explir=   0.    amps        jtun=   0.    amps   
   jtunsw=   0.    amps        ntun=  30.00         
  
 ********************************************************
 *** common model parameters model name:   4:diode1  ****
 ********************************************************

     names  values   units     names  values   units     names  values   units
     -----  ------   -----     -----  ------   -----     -----  ------   -----

   1*** dc breakdown parameters ***
       vb=   0.    volts        ibv=   1.00m amps   

   2*** parasitic resistance parameters ***
       rs=   0.    ohms   

   3*** capacitance parameters ***
       fc= 500.00m              fcs= 500.00m                m= 500.00m        
     mjsw= 330.00m               pb= 800.00m volts        php= 800.00m volts  
       tt=   0.    secs         cjo=   0.    f/area       cjp=   0.    f/pj   

   4*** temperature effect parameters ***
     tlev=   0.               tlevc=   0.                 tcv=   0.    v/deg k
      trs=   0.    /deg         cta=   0.    /deg         ctp=   0.    /deg   
      xti=   3.00            xtitun=   3.00               keg=   1.00         
       eg=   1.11  ev          gap1= 702.00u  ev/deg     gap2=   1.11k  deg   
     ttt1=   0.    /deg        ttt2=   0.    /deg2        tm1=   0.    /deg   
      tm2=   0.    /deg2        tpb=   0.    v/deg k     tphp=   0.    v/deg k
     tref=  25.00   deg c 

   5*** noise parameters ***
       kf=   0.                  af=   1.00         

   ***  level   1  model parameters  ***

    level=   1.00                is=   1.00u amps         jsw=   0.    amps   
        n=   1.50               nbv=   1.50                ik=   0.    amp    
     area=   1.00                pj=   0.                 ikr=   0.    amp    
    expli=   0.    amps      explir=   0.    amps        jtun=   0.    amps   
   jtunsw=   0.    amps        ntun=  30.00         
  
 ********************************************************
 *** common model parameters model name:   5:diode1  ****
 ********************************************************

     names  values   units     names  values   units     names  values   units
     -----  ------   -----     -----  ------   -----     -----  ------   -----

   1*** dc breakdown parameters ***
       vb=   0.    volts        ibv=   1.00m amps   

   2*** parasitic resistance parameters ***
       rs=   0.    ohms   

   3*** capacitance parameters ***
       fc= 500.00m              fcs= 500.00m                m= 500.00m        
     mjsw= 330.00m               pb= 800.00m volts        php= 800.00m volts  
       tt=   0.    secs         cjo=   0.    f/area       cjp=   0.    f/pj   

   4*** temperature effect parameters ***
     tlev=   0.               tlevc=   0.                 tcv=   0.    v/deg k
      trs=   0.    /deg         cta=   0.    /deg         ctp=   0.    /deg   
      xti=   3.00            xtitun=   3.00               keg=   1.00         
       eg=   1.11  ev          gap1= 702.00u  ev/deg     gap2=   1.11k  deg   
     ttt1=   0.    /deg        ttt2=   0.    /deg2        tm1=   0.    /deg   
      tm2=   0.    /deg2        tpb=   0.    v/deg k     tphp=   0.    v/deg k
     tref=  25.00   deg c 

   5*** noise parameters ***
       kf=   0.                  af=   1.00         

   ***  level   1  model parameters  ***

    level=   1.00                is=   1.00u amps         jsw=   0.    amps   
        n=   1.50               nbv=   1.50                ik=   0.    amp    
     area=   1.00                pj=   0.                 ikr=   0.    amp    
    expli=   0.    amps      explir=   0.    amps        jtun=   0.    amps   
   jtunsw=   0.    amps        ntun=  30.00         
  
 ********************************************************
 *** common model parameters model name:   6:diode1  ****
 ********************************************************

     names  values   units     names  values   units     names  values   units
     -----  ------   -----     -----  ------   -----     -----  ------   -----

   1*** dc breakdown parameters ***
       vb=   0.    volts        ibv=   1.00m amps   

   2*** parasitic resistance parameters ***
       rs=   0.    ohms   

   3*** capacitance parameters ***
       fc= 500.00m              fcs= 500.00m                m= 500.00m        
     mjsw= 330.00m               pb= 800.00m volts        php= 800.00m volts  
       tt=   0.    secs         cjo=   0.    f/area       cjp=   0.    f/pj   

   4*** temperature effect parameters ***
     tlev=   0.               tlevc=   0.                 tcv=   0.    v/deg k
      trs=   0.    /deg         cta=   0.    /deg         ctp=   0.    /deg   
      xti=   3.00            xtitun=   3.00               keg=   1.00         
       eg=   1.11  ev          gap1= 702.00u  ev/deg     gap2=   1.11k  deg   
     ttt1=   0.    /deg        ttt2=   0.    /deg2        tm1=   0.    /deg   
      tm2=   0.    /deg2        tpb=   0.    v/deg k     tphp=   0.    v/deg k
     tref=  25.00   deg c 

   5*** noise parameters ***
       kf=   0.                  af=   1.00         

   ***  level   1  model parameters  ***

    level=   1.00                is=   1.00u amps         jsw=   0.    amps   
        n=   1.50               nbv=   1.50                ik=   0.    amp    
     area=   1.00                pj=   0.                 ikr=   0.    amp    
    expli=   0.    amps      explir=   0.    amps        jtun=   0.    amps   
   jtunsw=   0.    amps        ntun=  30.00         
  
 ********************************************************
 *** common model parameters model name:   7:diode1  ****
 ********************************************************

     names  values   units     names  values   units     names  values   units
     -----  ------   -----     -----  ------   -----     -----  ------   -----

   1*** dc breakdown parameters ***
       vb=   0.    volts        ibv=   1.00m amps   

   2*** parasitic resistance parameters ***
       rs=   0.    ohms   

   3*** capacitance parameters ***
       fc= 500.00m              fcs= 500.00m                m= 500.00m        
     mjsw= 330.00m               pb= 800.00m volts        php= 800.00m volts  
       tt=   0.    secs         cjo=   0.    f/area       cjp=   0.    f/pj   

   4*** temperature effect parameters ***
     tlev=   0.               tlevc=   0.                 tcv=   0.    v/deg k
      trs=   0.    /deg         cta=   0.    /deg         ctp=   0.    /deg   
      xti=   3.00            xtitun=   3.00               keg=   1.00         
       eg=   1.11  ev          gap1= 702.00u  ev/deg     gap2=   1.11k  deg   
     ttt1=   0.    /deg        ttt2=   0.    /deg2        tm1=   0.    /deg   
      tm2=   0.    /deg2        tpb=   0.    v/deg k     tphp=   0.    v/deg k
     tref=  25.00   deg c 

   5*** noise parameters ***
       kf=   0.                  af=   1.00         

   ***  level   1  model parameters  ***

    level=   1.00                is=   1.00u amps         jsw=   0.    amps   
        n=   1.50               nbv=   1.50                ik=   0.    amp    
     area=   1.00                pj=   0.                 ikr=   0.    amp    
    expli=   0.    amps      explir=   0.    amps        jtun=   0.    amps   
   jtunsw=   0.    amps        ntun=  30.00         
  
 ********************************************************
 *** common model parameters model name:   8:diode1  ****
 ********************************************************

     names  values   units     names  values   units     names  values   units
     -----  ------   -----     -----  ------   -----     -----  ------   -----

   1*** dc breakdown parameters ***
       vb=   0.    volts        ibv=   1.00m amps   

   2*** parasitic resistance parameters ***
       rs=   0.    ohms   

   3*** capacitance parameters ***
       fc= 500.00m              fcs= 500.00m                m= 500.00m        
     mjsw= 330.00m               pb= 800.00m volts        php= 800.00m volts  
       tt=   0.    secs         cjo=   0.    f/area       cjp=   0.    f/pj   

   4*** temperature effect parameters ***
     tlev=   0.               tlevc=   0.                 tcv=   0.    v/deg k
      trs=   0.    /deg         cta=   0.    /deg         ctp=   0.    /deg   
      xti=   3.00            xtitun=   3.00               keg=   1.00         
       eg=   1.11  ev          gap1= 702.00u  ev/deg     gap2=   1.11k  deg   
     ttt1=   0.    /deg        ttt2=   0.    /deg2        tm1=   0.    /deg   
      tm2=   0.    /deg2        tpb=   0.    v/deg k     tphp=   0.    v/deg k
     tref=  25.00   deg c 

   5*** noise parameters ***
       kf=   0.                  af=   1.00         

   ***  level   1  model parameters  ***

    level=   1.00                is=   1.00u amps         jsw=   0.    amps   
        n=   1.50               nbv=   1.50                ik=   0.    amp    
     area=   1.00                pj=   0.                 ikr=   0.    amp    
    expli=   0.    amps      explir=   0.    amps        jtun=   0.    amps   
   jtunsw=   0.    amps        ntun=  30.00         
  
 ********************************************************
 *** common model parameters model name:   9:diode1  ****
 ********************************************************

     names  values   units     names  values   units     names  values   units
     -----  ------   -----     -----  ------   -----     -----  ------   -----

   1*** dc breakdown parameters ***
       vb=   0.    volts        ibv=   1.00m amps   

   2*** parasitic resistance parameters ***
       rs=   0.    ohms   

   3*** capacitance parameters ***
       fc= 500.00m              fcs= 500.00m                m= 500.00m        
     mjsw= 330.00m               pb= 800.00m volts        php= 800.00m volts  
       tt=   0.    secs         cjo=   0.    f/area       cjp=   0.    f/pj   

   4*** temperature effect parameters ***
     tlev=   0.               tlevc=   0.                 tcv=   0.    v/deg k
      trs=   0.    /deg         cta=   0.    /deg         ctp=   0.    /deg   
      xti=   3.00            xtitun=   3.00               keg=   1.00         
       eg=   1.11  ev          gap1= 702.00u  ev/deg     gap2=   1.11k  deg   
     ttt1=   0.    /deg        ttt2=   0.    /deg2        tm1=   0.    /deg   
      tm2=   0.    /deg2        tpb=   0.    v/deg k     tphp=   0.    v/deg k
     tref=  25.00   deg c 

   5*** noise parameters ***
       kf=   0.                  af=   1.00         

   ***  level   1  model parameters  ***

    level=   1.00                is=   1.00u amps         jsw=   0.    amps   
        n=   1.50               nbv=   1.50                ik=   0.    amp    
     area=   1.00                pj=   0.                 ikr=   0.    amp    
    expli=   0.    amps      explir=   0.    amps        jtun=   0.    amps   
   jtunsw=   0.    amps        ntun=  30.00         
  
 ********************************************************
 *** common model parameters model name:  10:diode1  ****
 ********************************************************

     names  values   units     names  values   units     names  values   units
     -----  ------   -----     -----  ------   -----     -----  ------   -----

   1*** dc breakdown parameters ***
       vb=   0.    volts        ibv=   1.00m amps   

   2*** parasitic resistance parameters ***
       rs=   0.    ohms   

   3*** capacitance parameters ***
       fc= 500.00m              fcs= 500.00m                m= 500.00m        
     mjsw= 330.00m               pb= 800.00m volts        php= 800.00m volts  
       tt=   0.    secs         cjo=   0.    f/area       cjp=   0.    f/pj   

   4*** temperature effect parameters ***
     tlev=   0.               tlevc=   0.                 tcv=   0.    v/deg k
      trs=   0.    /deg         cta=   0.    /deg         ctp=   0.    /deg   
      xti=   3.00            xtitun=   3.00               keg=   1.00         
       eg=   1.11  ev          gap1= 702.00u  ev/deg     gap2=   1.11k  deg   
     ttt1=   0.    /deg        ttt2=   0.    /deg2        tm1=   0.    /deg   
      tm2=   0.    /deg2        tpb=   0.    v/deg k     tphp=   0.    v/deg k
     tref=  25.00   deg c 

   5*** noise parameters ***
       kf=   0.                  af=   1.00         

   ***  level   1  model parameters  ***

    level=   1.00                is=   1.00u amps         jsw=   0.    amps   
        n=   1.50               nbv=   1.50                ik=   0.    amp    
     area=   1.00                pj=   0.                 ikr=   0.    amp    
    expli=   0.    amps      explir=   0.    amps        jtun=   0.    amps   
   jtunsw=   0.    amps        ntun=  30.00         
  
 ********************************************************
 *** common model parameters model name:  11:diode1  ****
 ********************************************************

     names  values   units     names  values   units     names  values   units
     -----  ------   -----     -----  ------   -----     -----  ------   -----

   1*** dc breakdown parameters ***
       vb=   0.    volts        ibv=   1.00m amps   

   2*** parasitic resistance parameters ***
       rs=   0.    ohms   

   3*** capacitance parameters ***
       fc= 500.00m              fcs= 500.00m                m= 500.00m        
     mjsw= 330.00m               pb= 800.00m volts        php= 800.00m volts  
       tt=   0.    secs         cjo=   0.    f/area       cjp=   0.    f/pj   

   4*** temperature effect parameters ***
     tlev=   0.               tlevc=   0.                 tcv=   0.    v/deg k
      trs=   0.    /deg         cta=   0.    /deg         ctp=   0.    /deg   
      xti=   3.00            xtitun=   3.00               keg=   1.00         
       eg=   1.11  ev          gap1= 702.00u  ev/deg     gap2=   1.11k  deg   
     ttt1=   0.    /deg        ttt2=   0.    /deg2        tm1=   0.    /deg   
      tm2=   0.    /deg2        tpb=   0.    v/deg k     tphp=   0.    v/deg k
     tref=  25.00   deg c 

   5*** noise parameters ***
       kf=   0.                  af=   1.00         

   ***  level   1  model parameters  ***

    level=   1.00                is=   1.00u amps         jsw=   0.    amps   
        n=   1.50               nbv=   1.50                ik=   0.    amp    
     area=   1.00                pj=   0.                 ikr=   0.    amp    
    expli=   0.    amps      explir=   0.    amps        jtun=   0.    amps   
   jtunsw=   0.    amps        ntun=  30.00         
  
 ********************************************************
 *** common model parameters model name:  12:diode1  ****
 ********************************************************

     names  values   units     names  values   units     names  values   units
     -----  ------   -----     -----  ------   -----     -----  ------   -----

   1*** dc breakdown parameters ***
       vb=   0.    volts        ibv=   1.00m amps   

   2*** parasitic resistance parameters ***
       rs=   0.    ohms   

   3*** capacitance parameters ***
       fc= 500.00m              fcs= 500.00m                m= 500.00m        
     mjsw= 330.00m               pb= 800.00m volts        php= 800.00m volts  
       tt=   0.    secs         cjo=   0.    f/area       cjp=   0.    f/pj   

   4*** temperature effect parameters ***
     tlev=   0.               tlevc=   0.                 tcv=   0.    v/deg k
      trs=   0.    /deg         cta=   0.    /deg         ctp=   0.    /deg   
      xti=   3.00            xtitun=   3.00               keg=   1.00         
       eg=   1.11  ev          gap1= 702.00u  ev/deg     gap2=   1.11k  deg   
     ttt1=   0.    /deg        ttt2=   0.    /deg2        tm1=   0.    /deg   
      tm2=   0.    /deg2        tpb=   0.    v/deg k     tphp=   0.    v/deg k
     tref=  25.00   deg c 

   5*** noise parameters ***
       kf=   0.                  af=   1.00         

   ***  level   1  model parameters  ***

    level=   1.00                is=   1.00u amps         jsw=   0.    amps   
        n=   1.50               nbv=   1.50                ik=   0.    amp    
     area=   1.00                pj=   0.                 ikr=   0.    amp    
    expli=   0.    amps      explir=   0.    amps        jtun=   0.    amps   
   jtunsw=   0.    amps        ntun=  30.00         
  
 ********************************************************
 *** common model parameters model name:  13:diode1  ****
 ********************************************************

     names  values   units     names  values   units     names  values   units
     -----  ------   -----     -----  ------   -----     -----  ------   -----

   1*** dc breakdown parameters ***
       vb=   0.    volts        ibv=   1.00m amps   

   2*** parasitic resistance parameters ***
       rs=   0.    ohms   

   3*** capacitance parameters ***
       fc= 500.00m              fcs= 500.00m                m= 500.00m        
     mjsw= 330.00m               pb= 800.00m volts        php= 800.00m volts  
       tt=   0.    secs         cjo=   0.    f/area       cjp=   0.    f/pj   

   4*** temperature effect parameters ***
     tlev=   0.               tlevc=   0.                 tcv=   0.    v/deg k
      trs=   0.    /deg         cta=   0.    /deg         ctp=   0.    /deg   
      xti=   3.00            xtitun=   3.00               keg=   1.00         
       eg=   1.11  ev          gap1= 702.00u  ev/deg     gap2=   1.11k  deg   
     ttt1=   0.    /deg        ttt2=   0.    /deg2        tm1=   0.    /deg   
      tm2=   0.    /deg2        tpb=   0.    v/deg k     tphp=   0.    v/deg k
     tref=  25.00   deg c 

   5*** noise parameters ***
       kf=   0.                  af=   1.00         

   ***  level   1  model parameters  ***

    level=   1.00                is=   1.00u amps         jsw=   0.    amps   
        n=   1.50               nbv=   1.50                ik=   0.    amp    
     area=   1.00                pj=   0.                 ikr=   0.    amp    
    expli=   0.    amps      explir=   0.    amps        jtun=   0.    amps   
   jtunsw=   0.    amps        ntun=  30.00         
  
 ********************************************************
 *** common model parameters model name:  14:diode1  ****
 ********************************************************

     names  values   units     names  values   units     names  values   units
     -----  ------   -----     -----  ------   -----     -----  ------   -----

   1*** dc breakdown parameters ***
       vb=   0.    volts        ibv=   1.00m amps   

   2*** parasitic resistance parameters ***
       rs=   0.    ohms   

   3*** capacitance parameters ***
       fc= 500.00m              fcs= 500.00m                m= 500.00m        
     mjsw= 330.00m               pb= 800.00m volts        php= 800.00m volts  
       tt=   0.    secs         cjo=   0.    f/area       cjp=   0.    f/pj   

   4*** temperature effect parameters ***
     tlev=   0.               tlevc=   0.                 tcv=   0.    v/deg k
      trs=   0.    /deg         cta=   0.    /deg         ctp=   0.    /deg   
      xti=   3.00            xtitun=   3.00               keg=   1.00         
       eg=   1.11  ev          gap1= 702.00u  ev/deg     gap2=   1.11k  deg   
     ttt1=   0.    /deg        ttt2=   0.    /deg2        tm1=   0.    /deg   
      tm2=   0.    /deg2        tpb=   0.    v/deg k     tphp=   0.    v/deg k
     tref=  25.00   deg c 

   5*** noise parameters ***
       kf=   0.                  af=   1.00         

   ***  level   1  model parameters  ***

    level=   1.00                is=   1.00u amps         jsw=   0.    amps   
        n=   1.50               nbv=   1.50                ik=   0.    amp    
     area=   1.00                pj=   0.                 ikr=   0.    amp    
    expli=   0.    amps      explir=   0.    amps        jtun=   0.    amps   
   jtunsw=   0.    amps        ntun=  30.00         
  
 ********************************************************
 *** common model parameters model name:  15:diode1  ****
 ********************************************************

     names  values   units     names  values   units     names  values   units
     -----  ------   -----     -----  ------   -----     -----  ------   -----

   1*** dc breakdown parameters ***
       vb=   0.    volts        ibv=   1.00m amps   

   2*** parasitic resistance parameters ***
       rs=   0.    ohms   

   3*** capacitance parameters ***
       fc= 500.00m              fcs= 500.00m                m= 500.00m        
     mjsw= 330.00m               pb= 800.00m volts        php= 800.00m volts  
       tt=   0.    secs         cjo=   0.    f/area       cjp=   0.    f/pj   

   4*** temperature effect parameters ***
     tlev=   0.               tlevc=   0.                 tcv=   0.    v/deg k
      trs=   0.    /deg         cta=   0.    /deg         ctp=   0.    /deg   
      xti=   3.00            xtitun=   3.00               keg=   1.00         
       eg=   1.11  ev          gap1= 702.00u  ev/deg     gap2=   1.11k  deg   
     ttt1=   0.    /deg        ttt2=   0.    /deg2        tm1=   0.    /deg   
      tm2=   0.    /deg2        tpb=   0.    v/deg k     tphp=   0.    v/deg k
     tref=  25.00   deg c 

   5*** noise parameters ***
       kf=   0.                  af=   1.00         

   ***  level   1  model parameters  ***

    level=   1.00                is=   1.00u amps         jsw=   0.    amps   
        n=   1.50               nbv=   1.50                ik=   0.    amp    
     area=   1.00                pj=   0.                 ikr=   0.    amp    
    expli=   0.    amps      explir=   0.    amps        jtun=   0.    amps   
   jtunsw=   0.    amps        ntun=  30.00         
  
 ********************************************************
 *** common model parameters model name:  16:diode1  ****
 ********************************************************

     names  values   units     names  values   units     names  values   units
     -----  ------   -----     -----  ------   -----     -----  ------   -----

   1*** dc breakdown parameters ***
       vb=   0.    volts        ibv=   1.00m amps   

   2*** parasitic resistance parameters ***
       rs=   0.    ohms   

   3*** capacitance parameters ***
       fc= 500.00m              fcs= 500.00m                m= 500.00m        
     mjsw= 330.00m               pb= 800.00m volts        php= 800.00m volts  
       tt=   0.    secs         cjo=   0.    f/area       cjp=   0.    f/pj   

   4*** temperature effect parameters ***
     tlev=   0.               tlevc=   0.                 tcv=   0.    v/deg k
      trs=   0.    /deg         cta=   0.    /deg         ctp=   0.    /deg   
      xti=   3.00            xtitun=   3.00               keg=   1.00         
       eg=   1.11  ev          gap1= 702.00u  ev/deg     gap2=   1.11k  deg   
     ttt1=   0.    /deg        ttt2=   0.    /deg2        tm1=   0.    /deg   
      tm2=   0.    /deg2        tpb=   0.    v/deg k     tphp=   0.    v/deg k
     tref=  25.00   deg c 

   5*** noise parameters ***
       kf=   0.                  af=   1.00         

   ***  level   1  model parameters  ***

    level=   1.00                is=   1.00u amps         jsw=   0.    amps   
        n=   1.50               nbv=   1.50                ik=   0.    amp    
     area=   1.00                pj=   0.                 ikr=   0.    amp    
    expli=   0.    amps      explir=   0.    amps        jtun=   0.    amps   
   jtunsw=   0.    amps        ntun=  30.00         
  
 ********************************************************
 *** common model parameters model name:  17:diode1  ****
 ********************************************************

     names  values   units     names  values   units     names  values   units
     -----  ------   -----     -----  ------   -----     -----  ------   -----

   1*** dc breakdown parameters ***
       vb=   0.    volts        ibv=   1.00m amps   

   2*** parasitic resistance parameters ***
       rs=   0.    ohms   

   3*** capacitance parameters ***
       fc= 500.00m              fcs= 500.00m                m= 500.00m        
     mjsw= 330.00m               pb= 800.00m volts        php= 800.00m volts  
       tt=   0.    secs         cjo=   0.    f/area       cjp=   0.    f/pj   

   4*** temperature effect parameters ***
     tlev=   0.               tlevc=   0.                 tcv=   0.    v/deg k
      trs=   0.    /deg         cta=   0.    /deg         ctp=   0.    /deg   
      xti=   3.00            xtitun=   3.00               keg=   1.00         
       eg=   1.11  ev          gap1= 702.00u  ev/deg     gap2=   1.11k  deg   
     ttt1=   0.    /deg        ttt2=   0.    /deg2        tm1=   0.    /deg   
      tm2=   0.    /deg2        tpb=   0.    v/deg k     tphp=   0.    v/deg k
     tref=  25.00   deg c 

   5*** noise parameters ***
       kf=   0.                  af=   1.00         

   ***  level   1  model parameters  ***

    level=   1.00                is=   1.00u amps         jsw=   0.    amps   
        n=   1.50               nbv=   1.50                ik=   0.    amp    
     area=   1.00                pj=   0.                 ikr=   0.    amp    
    expli=   0.    amps      explir=   0.    amps        jtun=   0.    amps   
   jtunsw=   0.    amps        ntun=  30.00         
  
 ********************************************************
 *** common model parameters model name:  18:diode1  ****
 ********************************************************

     names  values   units     names  values   units     names  values   units
     -----  ------   -----     -----  ------   -----     -----  ------   -----

   1*** dc breakdown parameters ***
       vb=   0.    volts        ibv=   1.00m amps   

   2*** parasitic resistance parameters ***
       rs=   0.    ohms   

   3*** capacitance parameters ***
       fc= 500.00m              fcs= 500.00m                m= 500.00m        
     mjsw= 330.00m               pb= 800.00m volts        php= 800.00m volts  
       tt=   0.    secs         cjo=   0.    f/area       cjp=   0.    f/pj   

   4*** temperature effect parameters ***
     tlev=   0.               tlevc=   0.                 tcv=   0.    v/deg k
      trs=   0.    /deg         cta=   0.    /deg         ctp=   0.    /deg   
      xti=   3.00            xtitun=   3.00               keg=   1.00         
       eg=   1.11  ev          gap1= 702.00u  ev/deg     gap2=   1.11k  deg   
     ttt1=   0.    /deg        ttt2=   0.    /deg2        tm1=   0.    /deg   
      tm2=   0.    /deg2        tpb=   0.    v/deg k     tphp=   0.    v/deg k
     tref=  25.00   deg c 

   5*** noise parameters ***
       kf=   0.                  af=   1.00         

   ***  level   1  model parameters  ***

    level=   1.00                is=   1.00u amps         jsw=   0.    amps   
        n=   1.50               nbv=   1.50                ik=   0.    amp    
     area=   1.00                pj=   0.                 ikr=   0.    amp    
    expli=   0.    amps      explir=   0.    amps        jtun=   0.    amps   
   jtunsw=   0.    amps        ntun=  30.00         
  
 ********************************************************
 *** common model parameters model name:  19:diode1  ****
 ********************************************************

     names  values   units     names  values   units     names  values   units
     -----  ------   -----     -----  ------   -----     -----  ------   -----

   1*** dc breakdown parameters ***
       vb=   0.    volts        ibv=   1.00m amps   

   2*** parasitic resistance parameters ***
       rs=   0.    ohms   

   3*** capacitance parameters ***
       fc= 500.00m              fcs= 500.00m                m= 500.00m        
     mjsw= 330.00m               pb= 800.00m volts        php= 800.00m volts  
       tt=   0.    secs         cjo=   0.    f/area       cjp=   0.    f/pj   

   4*** temperature effect parameters ***
     tlev=   0.               tlevc=   0.                 tcv=   0.    v/deg k
      trs=   0.    /deg         cta=   0.    /deg         ctp=   0.    /deg   
      xti=   3.00            xtitun=   3.00               keg=   1.00         
       eg=   1.11  ev          gap1= 702.00u  ev/deg     gap2=   1.11k  deg   
     ttt1=   0.    /deg        ttt2=   0.    /deg2        tm1=   0.    /deg   
      tm2=   0.    /deg2        tpb=   0.    v/deg k     tphp=   0.    v/deg k
     tref=  25.00   deg c 

   5*** noise parameters ***
       kf=   0.                  af=   1.00         

   ***  level   1  model parameters  ***

    level=   1.00                is=   1.00u amps         jsw=   0.    amps   
        n=   1.50               nbv=   1.50                ik=   0.    amp    
     area=   1.00                pj=   0.                 ikr=   0.    amp    
    expli=   0.    amps      explir=   0.    amps        jtun=   0.    amps   
   jtunsw=   0.    amps        ntun=  30.00         
  
 ********************************************************
 *** common model parameters model name:  20:diode1  ****
 ********************************************************

     names  values   units     names  values   units     names  values   units
     -----  ------   -----     -----  ------   -----     -----  ------   -----

   1*** dc breakdown parameters ***
       vb=   0.    volts        ibv=   1.00m amps   

   2*** parasitic resistance parameters ***
       rs=   0.    ohms   

   3*** capacitance parameters ***
       fc= 500.00m              fcs= 500.00m                m= 500.00m        
     mjsw= 330.00m               pb= 800.00m volts        php= 800.00m volts  
       tt=   0.    secs         cjo=   0.    f/area       cjp=   0.    f/pj   

   4*** temperature effect parameters ***
     tlev=   0.               tlevc=   0.                 tcv=   0.    v/deg k
      trs=   0.    /deg         cta=   0.    /deg         ctp=   0.    /deg   
      xti=   3.00            xtitun=   3.00               keg=   1.00         
       eg=   1.11  ev          gap1= 702.00u  ev/deg     gap2=   1.11k  deg   
     ttt1=   0.    /deg        ttt2=   0.    /deg2        tm1=   0.    /deg   
      tm2=   0.    /deg2        tpb=   0.    v/deg k     tphp=   0.    v/deg k
     tref=  25.00   deg c 

   5*** noise parameters ***
       kf=   0.                  af=   1.00         

   ***  level   1  model parameters  ***

    level=   1.00                is=   1.00u amps         jsw=   0.    amps   
        n=   1.50               nbv=   1.50                ik=   0.    amp    
     area=   1.00                pj=   0.                 ikr=   0.    amp    
    expli=   0.    amps      explir=   0.    amps        jtun=   0.    amps   
   jtunsw=   0.    amps        ntun=  30.00         
  
 ********************************************************
 *** common model parameters model name:  21:diode1  ****
 ********************************************************

     names  values   units     names  values   units     names  values   units
     -----  ------   -----     -----  ------   -----     -----  ------   -----

   1*** dc breakdown parameters ***
       vb=   0.    volts        ibv=   1.00m amps   

   2*** parasitic resistance parameters ***
       rs=   0.    ohms   

   3*** capacitance parameters ***
       fc= 500.00m              fcs= 500.00m                m= 500.00m        
     mjsw= 330.00m               pb= 800.00m volts        php= 800.00m volts  
       tt=   0.    secs         cjo=   0.    f/area       cjp=   0.    f/pj   

   4*** temperature effect parameters ***
     tlev=   0.               tlevc=   0.                 tcv=   0.    v/deg k
      trs=   0.    /deg         cta=   0.    /deg         ctp=   0.    /deg   
      xti=   3.00            xtitun=   3.00               keg=   1.00         
       eg=   1.11  ev          gap1= 702.00u  ev/deg     gap2=   1.11k  deg   
     ttt1=   0.    /deg        ttt2=   0.    /deg2        tm1=   0.    /deg   
      tm2=   0.    /deg2        tpb=   0.    v/deg k     tphp=   0.    v/deg k
     tref=  25.00   deg c 

   5*** noise parameters ***
       kf=   0.                  af=   1.00         

   ***  level   1  model parameters  ***

    level=   1.00                is=   1.00u amps         jsw=   0.    amps   
        n=   1.50               nbv=   1.50                ik=   0.    amp    
     area=   1.00                pj=   0.                 ikr=   0.    amp    
    expli=   0.    amps      explir=   0.    amps        jtun=   0.    amps   
   jtunsw=   0.    amps        ntun=  30.00         
  
 ********************************************************
 *** common model parameters model name:  22:diode1  ****
 ********************************************************

     names  values   units     names  values   units     names  values   units
     -----  ------   -----     -----  ------   -----     -----  ------   -----

   1*** dc breakdown parameters ***
       vb=   0.    volts        ibv=   1.00m amps   

   2*** parasitic resistance parameters ***
       rs=   0.    ohms   

   3*** capacitance parameters ***
       fc= 500.00m              fcs= 500.00m                m= 500.00m        
     mjsw= 330.00m               pb= 800.00m volts        php= 800.00m volts  
       tt=   0.    secs         cjo=   0.    f/area       cjp=   0.    f/pj   

   4*** temperature effect parameters ***
     tlev=   0.               tlevc=   0.                 tcv=   0.    v/deg k
      trs=   0.    /deg         cta=   0.    /deg         ctp=   0.    /deg   
      xti=   3.00            xtitun=   3.00               keg=   1.00         
       eg=   1.11  ev          gap1= 702.00u  ev/deg     gap2=   1.11k  deg   
     ttt1=   0.    /deg        ttt2=   0.    /deg2        tm1=   0.    /deg   
      tm2=   0.    /deg2        tpb=   0.    v/deg k     tphp=   0.    v/deg k
     tref=  25.00   deg c 

   5*** noise parameters ***
       kf=   0.                  af=   1.00         

   ***  level   1  model parameters  ***

    level=   1.00                is=   1.00u amps         jsw=   0.    amps   
        n=   1.50               nbv=   1.50                ik=   0.    amp    
     area=   1.00                pj=   0.                 ikr=   0.    amp    
    expli=   0.    amps      explir=   0.    amps        jtun=   0.    amps   
   jtunsw=   0.    amps        ntun=  30.00         
  
 ********************************************************
 *** common model parameters model name:  23:diode1  ****
 ********************************************************

     names  values   units     names  values   units     names  values   units
     -----  ------   -----     -----  ------   -----     -----  ------   -----

   1*** dc breakdown parameters ***
       vb=   0.    volts        ibv=   1.00m amps   

   2*** parasitic resistance parameters ***
       rs=   0.    ohms   

   3*** capacitance parameters ***
       fc= 500.00m              fcs= 500.00m                m= 500.00m        
     mjsw= 330.00m               pb= 800.00m volts        php= 800.00m volts  
       tt=   0.    secs         cjo=   0.    f/area       cjp=   0.    f/pj   

   4*** temperature effect parameters ***
     tlev=   0.               tlevc=   0.                 tcv=   0.    v/deg k
      trs=   0.    /deg         cta=   0.    /deg         ctp=   0.    /deg   
      xti=   3.00            xtitun=   3.00               keg=   1.00         
       eg=   1.11  ev          gap1= 702.00u  ev/deg     gap2=   1.11k  deg   
     ttt1=   0.    /deg        ttt2=   0.    /deg2        tm1=   0.    /deg   
      tm2=   0.    /deg2        tpb=   0.    v/deg k     tphp=   0.    v/deg k
     tref=  25.00   deg c 

   5*** noise parameters ***
       kf=   0.                  af=   1.00         

   ***  level   1  model parameters  ***

    level=   1.00                is=   1.00u amps         jsw=   0.    amps   
        n=   1.50               nbv=   1.50                ik=   0.    amp    
     area=   1.00                pj=   0.                 ikr=   0.    amp    
    expli=   0.    amps      explir=   0.    amps        jtun=   0.    amps   
   jtunsw=   0.    amps        ntun=  30.00         
  
 ********************************************************
 *** common model parameters model name:  24:diode1  ****
 ********************************************************

     names  values   units     names  values   units     names  values   units
     -----  ------   -----     -----  ------   -----     -----  ------   -----

   1*** dc breakdown parameters ***
       vb=   0.    volts        ibv=   1.00m amps   

   2*** parasitic resistance parameters ***
       rs=   0.    ohms   

   3*** capacitance parameters ***
       fc= 500.00m              fcs= 500.00m                m= 500.00m        
     mjsw= 330.00m               pb= 800.00m volts        php= 800.00m volts  
       tt=   0.    secs         cjo=   0.    f/area       cjp=   0.    f/pj   

   4*** temperature effect parameters ***
     tlev=   0.               tlevc=   0.                 tcv=   0.    v/deg k
      trs=   0.    /deg         cta=   0.    /deg         ctp=   0.    /deg   
      xti=   3.00            xtitun=   3.00               keg=   1.00         
       eg=   1.11  ev          gap1= 702.00u  ev/deg     gap2=   1.11k  deg   
     ttt1=   0.    /deg        ttt2=   0.    /deg2        tm1=   0.    /deg   
      tm2=   0.    /deg2        tpb=   0.    v/deg k     tphp=   0.    v/deg k
     tref=  25.00   deg c 

   5*** noise parameters ***
       kf=   0.                  af=   1.00         

   ***  level   1  model parameters  ***

    level=   1.00                is=   1.00u amps         jsw=   0.    amps   
        n=   1.50               nbv=   1.50                ik=   0.    amp    
     area=   1.00                pj=   0.                 ikr=   0.    amp    
    expli=   0.    amps      explir=   0.    amps        jtun=   0.    amps   
   jtunsw=   0.    amps        ntun=  30.00         
  
 ********************************************************
 *** common model parameters model name:  25:diode1  ****
 ********************************************************

     names  values   units     names  values   units     names  values   units
     -----  ------   -----     -----  ------   -----     -----  ------   -----

   1*** dc breakdown parameters ***
       vb=   0.    volts        ibv=   1.00m amps   

   2*** parasitic resistance parameters ***
       rs=   0.    ohms   

   3*** capacitance parameters ***
       fc= 500.00m              fcs= 500.00m                m= 500.00m        
     mjsw= 330.00m               pb= 800.00m volts        php= 800.00m volts  
       tt=   0.    secs         cjo=   0.    f/area       cjp=   0.    f/pj   

   4*** temperature effect parameters ***
     tlev=   0.               tlevc=   0.                 tcv=   0.    v/deg k
      trs=   0.    /deg         cta=   0.    /deg         ctp=   0.    /deg   
      xti=   3.00            xtitun=   3.00               keg=   1.00         
       eg=   1.11  ev          gap1= 702.00u  ev/deg     gap2=   1.11k  deg   
     ttt1=   0.    /deg        ttt2=   0.    /deg2        tm1=   0.    /deg   
      tm2=   0.    /deg2        tpb=   0.    v/deg k     tphp=   0.    v/deg k
     tref=  25.00   deg c 

   5*** noise parameters ***
       kf=   0.                  af=   1.00         

   ***  level   1  model parameters  ***

    level=   1.00                is=   1.00u amps         jsw=   0.    amps   
        n=   1.50               nbv=   1.50                ik=   0.    amp    
     area=   1.00                pj=   0.                 ikr=   0.    amp    
    expli=   0.    amps      explir=   0.    amps        jtun=   0.    amps   
   jtunsw=   0.    amps        ntun=  30.00         
  
 ********************************************************
 *** common model parameters model name:  26:diode1  ****
 ********************************************************

     names  values   units     names  values   units     names  values   units
     -----  ------   -----     -----  ------   -----     -----  ------   -----

   1*** dc breakdown parameters ***
       vb=   0.    volts        ibv=   1.00m amps   

   2*** parasitic resistance parameters ***
       rs=   0.    ohms   

   3*** capacitance parameters ***
       fc= 500.00m              fcs= 500.00m                m= 500.00m        
     mjsw= 330.00m               pb= 800.00m volts        php= 800.00m volts  
       tt=   0.    secs         cjo=   0.    f/area       cjp=   0.    f/pj   

   4*** temperature effect parameters ***
     tlev=   0.               tlevc=   0.                 tcv=   0.    v/deg k
      trs=   0.    /deg         cta=   0.    /deg         ctp=   0.    /deg   
      xti=   3.00            xtitun=   3.00               keg=   1.00         
       eg=   1.11  ev          gap1= 702.00u  ev/deg     gap2=   1.11k  deg   
     ttt1=   0.    /deg        ttt2=   0.    /deg2        tm1=   0.    /deg   
      tm2=   0.    /deg2        tpb=   0.    v/deg k     tphp=   0.    v/deg k
     tref=  25.00   deg c 

   5*** noise parameters ***
       kf=   0.                  af=   1.00         

   ***  level   1  model parameters  ***

    level=   1.00                is=   1.00u amps         jsw=   0.    amps   
        n=   1.50               nbv=   1.50                ik=   0.    amp    
     area=   1.00                pj=   0.                 ikr=   0.    amp    
    expli=   0.    amps      explir=   0.    amps        jtun=   0.    amps   
   jtunsw=   0.    amps        ntun=  30.00         
  
 ********************************************************
 *** common model parameters model name:  27:diode1  ****
 ********************************************************

     names  values   units     names  values   units     names  values   units
     -----  ------   -----     -----  ------   -----     -----  ------   -----

   1*** dc breakdown parameters ***
       vb=   0.    volts        ibv=   1.00m amps   

   2*** parasitic resistance parameters ***
       rs=   0.    ohms   

   3*** capacitance parameters ***
       fc= 500.00m              fcs= 500.00m                m= 500.00m        
     mjsw= 330.00m               pb= 800.00m volts        php= 800.00m volts  
       tt=   0.    secs         cjo=   0.    f/area       cjp=   0.    f/pj   

   4*** temperature effect parameters ***
     tlev=   0.               tlevc=   0.                 tcv=   0.    v/deg k
      trs=   0.    /deg         cta=   0.    /deg         ctp=   0.    /deg   
      xti=   3.00            xtitun=   3.00               keg=   1.00         
       eg=   1.11  ev          gap1= 702.00u  ev/deg     gap2=   1.11k  deg   
     ttt1=   0.    /deg        ttt2=   0.    /deg2        tm1=   0.    /deg   
      tm2=   0.    /deg2        tpb=   0.    v/deg k     tphp=   0.    v/deg k
     tref=  25.00   deg c 

   5*** noise parameters ***
       kf=   0.                  af=   1.00         

   ***  level   1  model parameters  ***

    level=   1.00                is=   1.00u amps         jsw=   0.    amps   
        n=   1.50               nbv=   1.50                ik=   0.    amp    
     area=   1.00                pj=   0.                 ikr=   0.    amp    
    expli=   0.    amps      explir=   0.    amps        jtun=   0.    amps   
   jtunsw=   0.    amps        ntun=  30.00         
  
 ********************************************************
 *** common model parameters model name:  28:diode1  ****
 ********************************************************

     names  values   units     names  values   units     names  values   units
     -----  ------   -----     -----  ------   -----     -----  ------   -----

   1*** dc breakdown parameters ***
       vb=   0.    volts        ibv=   1.00m amps   

   2*** parasitic resistance parameters ***
       rs=   0.    ohms   

   3*** capacitance parameters ***
       fc= 500.00m              fcs= 500.00m                m= 500.00m        
     mjsw= 330.00m               pb= 800.00m volts        php= 800.00m volts  
       tt=   0.    secs         cjo=   0.    f/area       cjp=   0.    f/pj   

   4*** temperature effect parameters ***
     tlev=   0.               tlevc=   0.                 tcv=   0.    v/deg k
      trs=   0.    /deg         cta=   0.    /deg         ctp=   0.    /deg   
      xti=   3.00            xtitun=   3.00               keg=   1.00         
       eg=   1.11  ev          gap1= 702.00u  ev/deg     gap2=   1.11k  deg   
     ttt1=   0.    /deg        ttt2=   0.    /deg2        tm1=   0.    /deg   
      tm2=   0.    /deg2        tpb=   0.    v/deg k     tphp=   0.    v/deg k
     tref=  25.00   deg c 

   5*** noise parameters ***
       kf=   0.                  af=   1.00         

   ***  level   1  model parameters  ***

    level=   1.00                is=   1.00u amps         jsw=   0.    amps   
        n=   1.50               nbv=   1.50                ik=   0.    amp    
     area=   1.00                pj=   0.                 ikr=   0.    amp    
    expli=   0.    amps      explir=   0.    amps        jtun=   0.    amps   
   jtunsw=   0.    amps        ntun=  30.00         
  
 ********************************************************
 *** common model parameters model name:  29:diode1  ****
 ********************************************************

     names  values   units     names  values   units     names  values   units
     -----  ------   -----     -----  ------   -----     -----  ------   -----

   1*** dc breakdown parameters ***
       vb=   0.    volts        ibv=   1.00m amps   

   2*** parasitic resistance parameters ***
       rs=   0.    ohms   

   3*** capacitance parameters ***
       fc= 500.00m              fcs= 500.00m                m= 500.00m        
     mjsw= 330.00m               pb= 800.00m volts        php= 800.00m volts  
       tt=   0.    secs         cjo=   0.    f/area       cjp=   0.    f/pj   

   4*** temperature effect parameters ***
     tlev=   0.               tlevc=   0.                 tcv=   0.    v/deg k
      trs=   0.    /deg         cta=   0.    /deg         ctp=   0.    /deg   
      xti=   3.00            xtitun=   3.00               keg=   1.00         
       eg=   1.11  ev          gap1= 702.00u  ev/deg     gap2=   1.11k  deg   
     ttt1=   0.    /deg        ttt2=   0.    /deg2        tm1=   0.    /deg   
      tm2=   0.    /deg2        tpb=   0.    v/deg k     tphp=   0.    v/deg k
     tref=  25.00   deg c 

   5*** noise parameters ***
       kf=   0.                  af=   1.00         

   ***  level   1  model parameters  ***

    level=   1.00                is=   1.00u amps         jsw=   0.    amps   
        n=   1.50               nbv=   1.50                ik=   0.    amp    
     area=   1.00                pj=   0.                 ikr=   0.    amp    
    expli=   0.    amps      explir=   0.    amps        jtun=   0.    amps   
   jtunsw=   0.    amps        ntun=  30.00         
  
 ********************************************************
 *** common model parameters model name:  30:diode1  ****
 ********************************************************

     names  values   units     names  values   units     names  values   units
     -----  ------   -----     -----  ------   -----     -----  ------   -----

   1*** dc breakdown parameters ***
       vb=   0.    volts        ibv=   1.00m amps   

   2*** parasitic resistance parameters ***
       rs=   0.    ohms   

   3*** capacitance parameters ***
       fc= 500.00m              fcs= 500.00m                m= 500.00m        
     mjsw= 330.00m               pb= 800.00m volts        php= 800.00m volts  
       tt=   0.    secs         cjo=   0.    f/area       cjp=   0.    f/pj   

   4*** temperature effect parameters ***
     tlev=   0.               tlevc=   0.                 tcv=   0.    v/deg k
      trs=   0.    /deg         cta=   0.    /deg         ctp=   0.    /deg   
      xti=   3.00            xtitun=   3.00               keg=   1.00         
       eg=   1.11  ev          gap1= 702.00u  ev/deg     gap2=   1.11k  deg   
     ttt1=   0.    /deg        ttt2=   0.    /deg2        tm1=   0.    /deg   
      tm2=   0.    /deg2        tpb=   0.    v/deg k     tphp=   0.    v/deg k
     tref=  25.00   deg c 

   5*** noise parameters ***
       kf=   0.                  af=   1.00         

   ***  level   1  model parameters  ***

    level=   1.00                is=   1.00u amps         jsw=   0.    amps   
        n=   1.50               nbv=   1.50                ik=   0.    amp    
     area=   1.00                pj=   0.                 ikr=   0.    amp    
    expli=   0.    amps      explir=   0.    amps        jtun=   0.    amps   
   jtunsw=   0.    amps        ntun=  30.00         
  
 ********************************************************
 *** common model parameters model name:  31:diode1  ****
 ********************************************************

     names  values   units     names  values   units     names  values   units
     -----  ------   -----     -----  ------   -----     -----  ------   -----

   1*** dc breakdown parameters ***
       vb=   0.    volts        ibv=   1.00m amps   

   2*** parasitic resistance parameters ***
       rs=   0.    ohms   

   3*** capacitance parameters ***
       fc= 500.00m              fcs= 500.00m                m= 500.00m        
     mjsw= 330.00m               pb= 800.00m volts        php= 800.00m volts  
       tt=   0.    secs         cjo=   0.    f/area       cjp=   0.    f/pj   

   4*** temperature effect parameters ***
     tlev=   0.               tlevc=   0.                 tcv=   0.    v/deg k
      trs=   0.    /deg         cta=   0.    /deg         ctp=   0.    /deg   
      xti=   3.00            xtitun=   3.00               keg=   1.00         
       eg=   1.11  ev          gap1= 702.00u  ev/deg     gap2=   1.11k  deg   
     ttt1=   0.    /deg        ttt2=   0.    /deg2        tm1=   0.    /deg   
      tm2=   0.    /deg2        tpb=   0.    v/deg k     tphp=   0.    v/deg k
     tref=  25.00   deg c 

   5*** noise parameters ***
       kf=   0.                  af=   1.00         

   ***  level   1  model parameters  ***

    level=   1.00                is=   1.00u amps         jsw=   0.    amps   
        n=   1.50               nbv=   1.50                ik=   0.    amp    
     area=   1.00                pj=   0.                 ikr=   0.    amp    
    expli=   0.    amps      explir=   0.    amps        jtun=   0.    amps   
   jtunsw=   0.    amps        ntun=  30.00         
  
 ********************************************************
 *** common model parameters model name:  32:diode1  ****
 ********************************************************

     names  values   units     names  values   units     names  values   units
     -----  ------   -----     -----  ------   -----     -----  ------   -----

   1*** dc breakdown parameters ***
       vb=   0.    volts        ibv=   1.00m amps   

   2*** parasitic resistance parameters ***
       rs=   0.    ohms   

   3*** capacitance parameters ***
       fc= 500.00m              fcs= 500.00m                m= 500.00m        
     mjsw= 330.00m               pb= 800.00m volts        php= 800.00m volts  
       tt=   0.    secs         cjo=   0.    f/area       cjp=   0.    f/pj   

   4*** temperature effect parameters ***
     tlev=   0.               tlevc=   0.                 tcv=   0.    v/deg k
      trs=   0.    /deg         cta=   0.    /deg         ctp=   0.    /deg   
      xti=   3.00            xtitun=   3.00               keg=   1.00         
       eg=   1.11  ev          gap1= 702.00u  ev/deg     gap2=   1.11k  deg   
     ttt1=   0.    /deg        ttt2=   0.    /deg2        tm1=   0.    /deg   
      tm2=   0.    /deg2        tpb=   0.    v/deg k     tphp=   0.    v/deg k
     tref=  25.00   deg c 

   5*** noise parameters ***
       kf=   0.                  af=   1.00         

   ***  level   1  model parameters  ***

    level=   1.00                is=   1.00u amps         jsw=   0.    amps   
        n=   1.50               nbv=   1.50                ik=   0.    amp    
     area=   1.00                pj=   0.                 ikr=   0.    amp    
    expli=   0.    amps      explir=   0.    amps        jtun=   0.    amps   
   jtunsw=   0.    amps        ntun=  30.00         
  
 ********************************************************
 *** common model parameters model name:  33:diode1  ****
 ********************************************************

     names  values   units     names  values   units     names  values   units
     -----  ------   -----     -----  ------   -----     -----  ------   -----

   1*** dc breakdown parameters ***
       vb=   0.    volts        ibv=   1.00m amps   

   2*** parasitic resistance parameters ***
       rs=   0.    ohms   

   3*** capacitance parameters ***
       fc= 500.00m              fcs= 500.00m                m= 500.00m        
     mjsw= 330.00m               pb= 800.00m volts        php= 800.00m volts  
       tt=   0.    secs         cjo=   0.    f/area       cjp=   0.    f/pj   

   4*** temperature effect parameters ***
     tlev=   0.               tlevc=   0.                 tcv=   0.    v/deg k
      trs=   0.    /deg         cta=   0.    /deg         ctp=   0.    /deg   
      xti=   3.00            xtitun=   3.00               keg=   1.00         
       eg=   1.11  ev          gap1= 702.00u  ev/deg     gap2=   1.11k  deg   
     ttt1=   0.    /deg        ttt2=   0.    /deg2        tm1=   0.    /deg   
      tm2=   0.    /deg2        tpb=   0.    v/deg k     tphp=   0.    v/deg k
     tref=  25.00   deg c 

   5*** noise parameters ***
       kf=   0.                  af=   1.00         

   ***  level   1  model parameters  ***

    level=   1.00                is=   1.00u amps         jsw=   0.    amps   
        n=   1.50               nbv=   1.50                ik=   0.    amp    
     area=   1.00                pj=   0.                 ikr=   0.    amp    
    expli=   0.    amps      explir=   0.    amps        jtun=   0.    amps   
   jtunsw=   0.    amps        ntun=  30.00         
  
 ********************************************************
 *** common model parameters model name:  34:diode1  ****
 ********************************************************

     names  values   units     names  values   units     names  values   units
     -----  ------   -----     -----  ------   -----     -----  ------   -----

   1*** dc breakdown parameters ***
       vb=   0.    volts        ibv=   1.00m amps   

   2*** parasitic resistance parameters ***
       rs=   0.    ohms   

   3*** capacitance parameters ***
       fc= 500.00m              fcs= 500.00m                m= 500.00m        
     mjsw= 330.00m               pb= 800.00m volts        php= 800.00m volts  
       tt=   0.    secs         cjo=   0.    f/area       cjp=   0.    f/pj   

   4*** temperature effect parameters ***
     tlev=   0.               tlevc=   0.                 tcv=   0.    v/deg k
      trs=   0.    /deg         cta=   0.    /deg         ctp=   0.    /deg   
      xti=   3.00            xtitun=   3.00               keg=   1.00         
       eg=   1.11  ev          gap1= 702.00u  ev/deg     gap2=   1.11k  deg   
     ttt1=   0.    /deg        ttt2=   0.    /deg2        tm1=   0.    /deg   
      tm2=   0.    /deg2        tpb=   0.    v/deg k     tphp=   0.    v/deg k
     tref=  25.00   deg c 

   5*** noise parameters ***
       kf=   0.                  af=   1.00         

   ***  level   1  model parameters  ***

    level=   1.00                is=   1.00u amps         jsw=   0.    amps   
        n=   1.50               nbv=   1.50                ik=   0.    amp    
     area=   1.00                pj=   0.                 ikr=   0.    amp    
    expli=   0.    amps      explir=   0.    amps        jtun=   0.    amps   
[...]
   27.84500      27.8450    -130.5954   
   27.85000      27.8500    -130.6696   
   27.85500      27.8550    -130.7439   
   27.86000      27.8600    -130.8182   
   27.86500      27.8650    -130.8924   
   27.87000      27.8700    -130.9667   
   27.87500      27.8750    -131.0410   
   27.88000      27.8800    -131.1153   
   27.88500      27.8850    -131.1895   
   27.89000      27.8900    -131.2638   
   27.89500      27.8950    -131.3381   
   27.90000      27.9000    -131.4124   
   27.90500      27.9050    -131.4867   
   27.91000      27.9100    -131.5610   
   27.91500      27.9150    -131.6354   
   27.92000      27.9200    -131.7097   
   27.92500      27.9250    -131.7840   
   27.93000      27.9300    -131.8583   
   27.93500      27.9350    -131.9327   
   27.94000      27.9400    -132.0070   
   27.94500      27.9450    -132.0813   
   27.95000      27.9500    -132.1557   
   27.95500      27.9550    -132.2300   
   27.96000      27.9600    -132.3044   
   27.96500      27.9650    -132.3787   
   27.97000      27.9700    -132.4531   
   27.97500      27.9750    -132.5275   
   27.98000      27.9800    -132.6018   
   27.98500      27.9850    -132.6762   
   27.99000      27.9900    -132.7506   
   27.99500      27.9950    -132.8250   
   28.00000      28.0000    -132.8994   
   28.00500      28.0050    -132.9738   
   28.01000      28.0100    -133.0482   
   28.01500      28.0150    -133.1226   
   28.02000      28.0200    -133.1970   
   28.02500      28.0250    -133.2714   
   28.03000      28.0300    -133.3458   
   28.03500      28.0350    -133.4202   
   28.04000      28.0400    -133.4947   
   28.04500      28.0450    -133.5691   
   28.05000      28.0500    -133.6435   
   28.05500      28.0550    -133.7180   
   28.06000      28.0600    -133.7924   
   28.06500      28.0650    -133.8669   
   28.07000      28.0700    -133.9413   
   28.07500      28.0750    -134.0158   
   28.08000      28.0800    -134.0902   
   28.08500      28.0850    -134.1647   
   28.09000      28.0900    -134.2392   
   28.09500      28.0950    -134.3137   
   28.10000      28.1000    -134.3881   
   28.10500      28.1050    -134.4626   
   28.11000      28.1100    -134.5371   
   28.11500      28.1150    -134.6116   
   28.12000      28.1200    -134.6861   
   28.12500      28.1250    -134.7606   
   28.13000      28.1300    -134.8351   
   28.13500      28.1350    -134.9096   
   28.14000      28.1400    -134.9841   
   28.14500      28.1450    -135.0587   
   28.15000      28.1500    -135.1332   
   28.15500      28.1550    -135.2077   
   28.16000      28.1600    -135.2822   
   28.16500      28.1650    -135.3568   
   28.17000      28.1700    -135.4313   
   28.17500      28.1750    -135.5059   
   28.18000      28.1800    -135.5804   
   28.18500      28.1850    -135.6550   
   28.19000      28.1900    -135.7295   
   28.19500      28.1950    -135.8041   
   28.20000      28.2000    -135.8787   
   28.20500      28.2050    -135.9532   
   28.21000      28.2100    -136.0278   
   28.21500      28.2150    -136.1024   
   28.22000      28.2200    -136.1770   
   28.22500      28.2250    -136.2516   
   28.23000      28.2300    -136.3262   
   28.23500      28.2350    -136.4008   
   28.24000      28.2400    -136.4754   
   28.24500      28.2450    -136.5500   
   28.25000      28.2500    -136.6246   
   28.25500      28.2550    -136.6992   
   28.26000      28.2600    -136.7738   
   28.26500      28.2650    -136.8485   
   28.27000      28.2700    -136.9231   
   28.27500      28.2750    -136.9977   
   28.28000      28.2800    -137.0724   
   28.28500      28.2850    -137.1470   
   28.29000      28.2900    -137.2217   
   28.29500      28.2950    -137.2963   
   28.30000      28.3000    -137.3710   
   28.30500      28.3050    -137.4456   
   28.31000      28.3100    -137.5203   
   28.31500      28.3150    -137.5950   
   28.32000      28.3200    -137.6696   
   28.32500      28.3250    -137.7443   
   28.33000      28.3300    -137.8190   
   28.33500      28.3350    -137.8937   
   28.34000      28.3400    -137.9684   
   28.34500      28.3450    -138.0430   
   28.35000      28.3500    -138.1177   
   28.35500      28.3550    -138.1924   
   28.36000      28.3600    -138.2672   
   28.36500      28.3650    -138.3419   
   28.37000      28.3700    -138.4166   
   28.37500      28.3750    -138.4913   
   28.38000      28.3800    -138.5660   
   28.38500      28.3850    -138.6408   
   28.39000      28.3900    -138.7155   
   28.39500      28.3950    -138.7902   
   28.40000      28.4000    -138.8650   
   28.40500      28.4050    -138.9397   
   28.41000      28.4100    -139.0145   
   28.41500      28.4150    -139.0892   
   28.42000      28.4200    -139.1640   
   28.42500      28.4250    -139.2387   
   28.43000      28.4300    -139.3135   
   28.43500      28.4350    -139.3883   
   28.44000      28.4400    -139.4630   
   28.44500      28.4450    -139.5378   
   28.45000      28.4500    -139.6126   
   28.45500      28.4550    -139.6874   
   28.46000      28.4600    -139.7622   
   28.46500      28.4650    -139.8370   
   28.47000      28.4700    -139.9118   
   28.47500      28.4750    -139.9866   
   28.48000      28.4800    -140.0614   
   28.48500      28.4850    -140.1362   
   28.49000      28.4900    -140.2110   
   28.49500      28.4950    -140.2858   
   28.50000      28.5000    -140.3607   
   28.50500      28.5050    -140.4355   
   28.51000      28.5100    -140.5103   
   28.51500      28.5150    -140.5852   
   28.52000      28.5200    -140.6600   
   28.52500      28.5250    -140.7348   
   28.53000      28.5300    -140.8097   
   28.53500      28.5350    -140.8845   
   28.54000      28.5400    -140.9594   
   28.54500      28.5450    -141.0343   
   28.55000      28.5500    -141.1091   
   28.55500      28.5550    -141.1840   
   28.56000      28.5600    -141.2589   
   28.56500      28.5650    -141.3337   
   28.57000      28.5700    -141.4086   
   28.57500      28.5750    -141.4835   
   28.58000      28.5800    -141.5584   
   28.58500      28.5850    -141.6333   
   28.59000      28.5900    -141.7082   
   28.59500      28.5950    -141.7831   
   28.60000      28.6000    -141.8580   
   28.60500      28.6050    -141.9329   
   28.61000      28.6100    -142.0078   
   28.61500      28.6150    -142.0828   
   28.62000      28.6200    -142.1577   
   28.62500      28.6250    -142.2326   
   28.63000      28.6300    -142.3075   
   28.63500      28.6350    -142.3825   
   28.64000      28.6400    -142.4574   
   28.64500      28.6450    -142.5324   
   28.65000      28.6500    -142.6073   
   28.65500      28.6550    -142.6823   
   28.66000      28.6600    -142.7572   
   28.66500      28.6650    -142.8322   
   28.67000      28.6700    -142.9071   
   28.67500      28.6750    -142.9821   
   28.68000      28.6800    -143.0571   
   28.68500      28.6850    -143.1320   
   28.69000      28.6900    -143.2070   
   28.69500      28.6950    -143.2820   
   28.70000      28.7000    -143.3570   
   28.70500      28.7050    -143.4320   
   28.71000      28.7100    -143.5070   
   28.71500      28.7150    -143.5820   
   28.72000      28.7200    -143.6570   
   28.72500      28.7250    -143.7320   
   28.73000      28.7300    -143.8070   
   28.73500      28.7350    -143.8820   
   28.74000      28.7400    -143.9570   
   28.74500      28.7450    -144.0321   
   28.75000      28.7500    -144.1071   
   28.75500      28.7550    -144.1821   
   28.76000      28.7600    -144.2572   
   28.76500      28.7650    -144.3322   
   28.77000      28.7700    -144.4072   
   28.77500      28.7750    -144.4823   
   28.78000      28.7800    -144.5573   
   28.78500      28.7850    -144.6324   
   28.79000      28.7900    -144.7075   
   28.79500      28.7950    -144.7825   
   28.80000      28.8000    -144.8576   
   28.80500      28.8050    -144.9327   
   28.81000      28.8100    -145.0077   
   28.81500      28.8150    -145.0828   
   28.82000      28.8200    -145.1579   
   28.82500      28.8250    -145.2330   
   28.83000      28.8300    -145.3081   
   28.83500      28.8350    -145.3832   
   28.84000      28.8400    -145.4583   
   28.84500      28.8450    -145.5334   
   28.85000      28.8500    -145.6085   
   28.85500      28.8550    -145.6836   
   28.86000      28.8600    -145.7587   
   28.86500      28.8650    -145.8338   
   28.87000      28.8700    -145.9090   
   28.87500      28.8750    -145.9841   
   28.88000      28.8800    -146.0592   
   28.88500      28.8850    -146.1344   
   28.89000      28.8900    -146.2095   
   28.89500      28.8950    -146.2846   
   28.90000      28.9000    -146.3598   
   28.90500      28.9050    -146.4349   
   28.91000      28.9100    -146.5101   
   28.91500      28.9150    -146.5852   
   28.92000      28.9200    -146.6604   
   28.92500      28.9250    -146.7356   
   28.93000      28.9300    -146.8107   
   28.93500      28.9350    -146.8859   
   28.94000      28.9400    -146.9611   
   28.94500      28.9450    -147.0363   
   28.95000      28.9500    -147.1115   
   28.95500      28.9550    -147.1866   
   28.96000      28.9600    -147.2618   
   28.96500      28.9650    -147.3370   
   28.97000      28.9700    -147.4122   
   28.97500      28.9750    -147.4874   
   28.98000      28.9800    -147.5627   
   28.98500      28.9850    -147.6379   
   28.99000      28.9900    -147.7131   
   28.99500      28.9950    -147.7883   
   29.00000      29.0000    -147.8635   
   29.00500      29.0050    -147.9388   
   29.01000      29.0100    -148.0140   
   29.01500      29.0150    -148.0892   
   29.02000      29.0200    -148.1645   
   29.02500      29.0250    -148.2397   
   29.03000      29.0300    -148.3149   
   29.03500      29.0350    -148.3902   
   29.04000      29.0400    -148.4655   
   29.04500      29.0450    -148.5407   
   29.05000      29.0500    -148.6160   
   29.05500      29.0550    -148.6912   
   29.06000      29.0600    -148.7665   
   29.06500      29.0650    -148.8418   
   29.07000      29.0700    -148.9171   
   29.07500      29.0750    -148.9923   
   29.08000      29.0800    -149.0676   
   29.08500      29.0850    -149.1429   
   29.09000      29.0900    -149.2182   
   29.09500      29.0950    -149.2935   
   29.10000      29.1000    -149.3688   
   29.10500      29.1050    -149.4441   
   29.11000      29.1100    -149.5194   
   29.11500      29.1150    -149.5947   
   29.12000      29.1200    -149.6700   
   29.12500      29.1250    -149.7454   
   29.13000      29.1300    -149.8207   
   29.13500      29.1350    -149.8960   
   29.14000      29.1400    -149.9713   
   29.14500      29.1450    -150.0467   
   29.15000      29.1500    -150.1220   
   29.15500      29.1550    -150.1973   
   29.16000      29.1600    -150.2727   
   29.16500      29.1650    -150.3480   
   29.17000      29.1700    -150.4234   
   29.17500      29.1750    -150.4988   
   29.18000      29.1800    -150.5741   
   29.18500      29.1850    -150.6495   
   29.19000      29.1900    -150.7248   
   29.19500      29.1950    -150.8002   
   29.20000      29.2000    -150.8756   
   29.20500      29.2050    -150.9510   
   29.21000      29.2100    -151.0263   
   29.21500      29.2150    -151.1017   
   29.22000      29.2200    -151.1771   
   29.22500      29.2250    -151.2525   
   29.23000      29.2300    -151.3279   
   29.23500      29.2350    -151.4033   
   29.24000      29.2400    -151.4787   
   29.24500      29.2450    -151.5541   
   29.25000      29.2500    -151.6295   
   29.25500      29.2550    -151.7050   
   29.26000      29.2600    -151.7804   
   29.26500      29.2650    -151.8558   
   29.27000      29.2700    -151.9312   
   29.27500      29.2750    -152.0067   
   29.28000      29.2800    -152.0821   
   29.28500      29.2850    -152.1575   
   29.29000      29.2900    -152.2330   
   29.29500      29.2950    -152.3084   
   29.30000      29.3000    -152.3839   
   29.30500      29.3050    -152.4593   
   29.31000      29.3100    -152.5348   
   29.31500      29.3150    -152.6102   
   29.32000      29.3200    -152.6857   
   29.32500      29.3250    -152.7612   
   29.33000      29.3300    -152.8366   
   29.33500      29.3350    -152.9121   
   29.34000      29.3400    -152.9876   
   29.34500      29.3450    -153.0631   
   29.35000      29.3500    -153.1386   
   29.35500      29.3550    -153.2140   
   29.36000      29.3600    -153.2895   
   29.36500      29.3650    -153.3650   
   29.37000      29.3700    -153.4405   
   29.37500      29.3750    -153.5160   
   29.38000      29.3800    -153.5915   
   29.38500      29.3850    -153.6671   
   29.39000      29.3900    -153.7426   
   29.39500      29.3950    -153.8181   
   29.40000      29.4000    -153.8936   
   29.40500      29.4050    -153.9691   
   29.41000      29.4100    -154.0447   
   29.41500      29.4150    -154.1202   
   29.42000      29.4200    -154.1957   
   29.42500      29.4250    -154.2713   
   29.43000      29.4300    -154.3468   
   29.43500      29.4350    -154.4224   
   29.44000      29.4400    -154.4979   
   29.44500      29.4450    -154.5735   
   29.45000      29.4500    -154.6490   
   29.45500      29.4550    -154.7246   
   29.46000      29.4600    -154.8001   
   29.46500      29.4650    -154.8757   
   29.47000      29.4700    -154.9513   
   29.47500      29.4750    -155.0269   
   29.48000      29.4800    -155.1024   
   29.48500      29.4850    -155.1780   
   29.49000      29.4900    -155.2536   
   29.49500      29.4950    -155.3292   
   29.50000      29.5000    -155.4048   
   29.50500      29.5050    -155.4804   
   29.51000      29.5100    -155.5560   
   29.51500      29.5150    -155.6316   
   29.52000      29.5200    -155.7072   
   29.52500      29.5250    -155.7828   
   29.53000      29.5300    -155.8584   
   29.53500      29.5350    -155.9340   
   29.54000      29.5400    -156.0097   
   29.54500      29.5450    -156.0853   
   29.55000      29.5500    -156.1609   
   29.55500      29.5550    -156.2365   
   29.56000      29.5600    -156.3122   
   29.56500      29.5650    -156.3878   
   29.57000      29.5700    -156.4635   
   29.57500      29.5750    -156.5391   
   29.58000      29.5800    -156.6148   
   29.58500      29.5850    -156.6904   
   29.59000      29.5900    -156.7661   
   29.59500      29.5950    -156.8417   
   29.60000      29.6000    -156.9174   
   29.60500      29.6050    -156.9931   
   29.61000      29.6100    -157.0687   
   29.61500      29.6150    -157.1444   
   29.62000      29.6200    -157.2201   
   29.62500      29.6250    -157.2958   
   29.63000      29.6300    -157.3714   
   29.63500      29.6350    -157.4471   
   29.64000      29.6400    -157.5228   
   29.64500      29.6450    -157.5985   
   29.65000      29.6500    -157.6742   
   29.65500      29.6550    -157.7499   
   29.66000      29.6600    -157.8256   
   29.66500      29.6650    -157.9013   
   29.67000      29.6700    -157.9770   
   29.67500      29.6750    -158.0528   
   29.68000      29.6800    -158.1285   
   29.68500      29.6850    -158.2042   
   29.69000      29.6900    -158.2799   
   29.69500      29.6950    -158.3557   
   29.70000      29.7000    -158.4314   
   29.70500      29.7050    -158.5071   
   29.71000      29.7100    -158.5829   
   29.71500      29.7150    -158.6586   
   29.72000      29.7200    -158.7344   
   29.72500      29.7250    -158.8101   
   29.73000      29.7300    -158.8859   
   29.73500      29.7350    -158.9616   
   29.74000      29.7400    -159.0374   
   29.74500      29.7450    -159.1131   
   29.75000      29.7500    -159.1889   
   29.75500      29.7550    -159.2647   
   29.76000      29.7600    -159.3405   
   29.76500      29.7650    -159.4162   
   29.77000      29.7700    -159.4920   
   29.77500      29.7750    -159.5678   
   29.78000      29.7800    -159.6436   
   29.78500      29.7850    -159.7194   
   29.79000      29.7900    -159.7952   
   29.79500      29.7950    -159.8710   
   29.80000      29.8000    -159.9468   
   29.80500      29.8050    -160.0226   
   29.81000      29.8100    -160.0984   
   29.81500      29.8150    -160.1742   
   29.82000      29.8200    -160.2500   
   29.82500      29.8250    -160.3258   
   29.83000      29.8300    -160.4017   
   29.83500      29.8350    -160.4775   
   29.84000      29.8400    -160.5533   
   29.84500      29.8450    -160.6291   
   29.85000      29.8500    -160.7050   
   29.85500      29.8550    -160.7808   
   29.86000      29.8600    -160.8567   
   29.86500      29.8650    -160.9325   
   29.87000      29.8700    -161.0083   
   29.87500      29.8750    -161.0842   
   29.88000      29.8800    -161.1601   
   29.88500      29.8850    -161.2359   
   29.89000      29.8900    -161.3118   
   29.89500      29.8950    -161.3876   
   29.90000      29.9000    -161.4635   
   29.90500      29.9050    -161.5394   
   29.91000      29.9100    -161.6153   
   29.91500      29.9150    -161.6911   
   29.92000      29.9200    -161.7670   
   29.92500      29.9250    -161.8429   
   29.93000      29.9300    -161.9188   
   29.93500      29.9350    -161.9947   
   29.94000      29.9400    -162.0706   
   29.94500      29.9450    -162.1465   
   29.95000      29.9500    -162.2224   
   29.95500      29.9550    -162.2983   
   29.96000      29.9600    -162.3742   
   29.96500      29.9650    -162.4501   
   29.97000      29.9700    -162.5260   
   29.97500      29.9750    -162.6019   
   29.98000      29.9800    -162.6779   
   29.98500      29.9850    -162.7538   
   29.99000      29.9900    -162.8297   
   29.99500      29.9950    -162.9057   
   30.00000      30.0000    -162.9816   
y

          ***** job concluded
1****** HSPICE -- C-2009.03-SP1 32-BIT (May 25 2009) winnt ******               
 ******  
 ** 30 cascaded, 4 paralleled cells

  ******  job statistics summary tnom=  25.000 temp=  25.000 *****

  ******  HSPICE Threads Information  ******
  Command Line Threads Count                  :     1
  Available CPU Count                         :     8
  Actual Model Evaluation(Load) Threads Count :     1
  Actual Solver Threads Count                 :     1


  ******  Circuit Statistics  ******
  # nodes       =     238 # elements   =     489
  # resistors   =     240 # capacitors =       0 # inductors   =       0
  # mutual_inds =       0 # vccs       =       0 # vcvs        =       0
  # cccs        =       0 # ccvs       =       0 # volt_srcs   =       1
  # curr_srcs   =     120 # diodes     =     128 # bjts        =       0
  # jfets       =       0 # mosfets    =       0 # U elements  =       0
  # T elements  =       0 # W elements =       0 # B elements  =       0
  # S elements  =       0 # P elements =       0 # va device   =       0


  ******  Runtime Statistics (seconds)  ******

  analysis           time    # points   tot. iter  conv.iter
  op point           0.00           1           0
  dc sweep           3.21        6001       12097
  readin             0.08
  errchk             0.04
  setup              0.02
  output             0.02


           total memory used          627  kbytes
           total cpu time            3.41 seconds
           total elapsed time        3.46 seconds
           job started at     13:13:19 06/24/2015
           job ended   at     13:13:22 06/24/2015


 Init: hspice initialization file: C:\synopsys\Hspice_C-2009.03-SP1\hspice.ini
  lic: Release hspice token(s) 
