 ****** HSPICE -- C-2009.03-SP1 32-BIT (May 25 2009) winnt ******               
  Copyright (C) 2009 Synopsys, Inc. All Rights Reserved.                        
  Unpublished-rights reserved under US copyright laws.
  This program is protected by law and is subject to the 
  terms and conditions of the license agreement from Synopsys.
  Use of this program is your acceptance to be bound by the 
  license agreement. HSPICE is the trademark of Synopsys, Inc.
  Input File: C:\Users\Administrator\Desktop\MultiLevel\gtModel.sp              
  lic:  
  lic: FLEXlm: v8.5b 
  lic: USER:   Administrator        HOSTNAME: WIN-HBGPFB5Q4D3 
  lic: HOSTID: "002268384615 005056c00001 005056c00008" PID:      6984 
  lic: Using FLEXlm license file: 
  lic: C:\synopsys\hspice_2009-03.lic 
  lic: Checkout 1 hspice 
  lic: License/Maintenance for hspice will expire on 31-dec-2020/2007.9 
  lic: NODE LOCKED license on hostid "002268384615 005056c00001 005056c00008" 
  lic:   
 Init: read install configuration file: C:\synopsys\Hspice_C-2009.03-SP1\meta.cfg
 Init: hspice initialization file: C:\synopsys\Hspice_C-2009.03-SP1\hspice.ini




1****** HSPICE -- C-2009.03-SP1 32-BIT (May 25 2009) winnt ******               
 ******  
 ** 60 cascaded, 2 paralleled cells

  ******  circuit name directory
 circuit number to circuit name directory
   number circuitname                     definition         multiplier
        0 main circuit
        1 xu11.                           cell5              1.00 
        2 xu21.                           cell5              1.00 
        3 xu31.                           cell5              1.00 
        4 xu41.                           cell5              1.00 
        5 xu51.                           cell5              1.00 
        6 xu61.                           cell4              1.00 
        7 xu71.                           cell4              1.00 
        8 xu81.                           cell4              1.00 
        9 xu91.                           cell5              1.00 
       10 xu101.                          cell3              1.00 
       11 xu111.                          cell4              1.00 
       12 xu121.                          cell3              1.00 
       13 xu131.                          cell2              1.00 
       14 xu141.                          cell2              1.00 
       15 xu151.                          cell2              1.00 
       16 xu161.                          cell2              1.00 
       17 xu171.                          cell2              1.00 
       18 xu181.                          cell1              1.00 
       19 xu191.                          cell1              1.00 
       20 xu201.                          cell1              1.00 
       21 xu211.                          cell1              1.00 
       22 xu221.                          cell1              1.00 
       23 xu231.                          cell1              1.00 
       24 xu241.                          cell1              1.00 
       25 xu251.                          cell1              1.00 
       26 xu261.                          cell1              1.00 
       27 xu271.                          cell1              1.00 
       28 xu281.                          cell1              1.00 
       29 xu291.                          cell1              1.00 
       30 xu301.                          cell1              1.00 
       31 xu311.                          cell1              1.00 
       32 xu321.                          cell1              1.00 
       33 xu331.                          cell1              1.00 
       34 xu341.                          cell1              1.00 
       35 xu351.                          cell1              1.00 
       36 xu361.                          cell1              1.00 
       37 xu371.                          cell1              1.00 
       38 xu381.                          cell1              1.00 
       39 xu391.                          cell1              1.00 
       40 xu401.                          cell1              1.00 
       41 xu411.                          cell1              1.00 
       42 xu421.                          cell1              1.00 
       43 xu431.                          cell1              1.00 
       44 xu441.                          cell1              1.00 
       45 xu451.                          cell1              1.00 
       46 xu461.                          cell1              1.00 
       47 xu471.                          cell1              1.00 
       48 xu481.                          cell1              1.00 
       49 xu491.                          cell1              1.00 
       50 xu501.                          cell1              1.00 
       51 xu511.                          cell1              1.00 
       52 xu521.                          cell1              1.00 
       53 xu531.                          cell1              1.00 
       54 xu541.                          cell1              1.00 
       55 xu551.                          cell1              1.00 
       56 xu561.                          cell1              1.00 
       57 xu571.                          cell1              1.00 
       58 xu581.                          cell1              1.00 
       59 xu591.                          cell1              1.00 
       60 xu601.                          cell1              1.00 
       61 xu12.                           cell5              1.00 
       62 xu22.                           cell5              1.00 
       63 xu32.                           cell5              1.00 
       64 xu42.                           cell5              1.00 
       65 xu52.                           cell5              1.00 
       66 xu62.                           cell5              1.00 
       67 xu72.                           cell4              1.00 
       68 xu82.                           cell4              1.00 
       69 xu92.                           cell3              1.00 
       70 xu102.                          cell3              1.00 
       71 xu112.                          cell3              1.00 
       72 xu122.                          cell2              1.00 
       73 xu132.                          cell2              1.00 
       74 xu142.                          cell2              1.00 
       75 xu152.                          cell2              1.00 
       76 xu162.                          cell2              1.00 
       77 xu172.                          cell2              1.00 
       78 xu182.                          cell1              1.00 
       79 xu192.                          cell1              1.00 
       80 xu202.                          cell1              1.00 
       81 xu212.                          cell1              1.00 
       82 xu222.                          cell1              1.00 
       83 xu232.                          cell1              1.00 
       84 xu242.                          cell1              1.00 
       85 xu252.                          cell1              1.00 
       86 xu262.                          cell1              1.00 
       87 xu272.                          cell1              1.00 
       88 xu282.                          cell1              1.00 
       89 xu292.                          cell1              1.00 
       90 xu302.                          cell1              1.00 
       91 xu312.                          cell1              1.00 
       92 xu322.                          cell1              1.00 
       93 xu332.                          cell1              1.00 
       94 xu342.                          cell1              1.00 
       95 xu352.                          cell1              1.00 
       96 xu362.                          cell1              1.00 
       97 xu372.                          cell1              1.00 
       98 xu382.                          cell1              1.00 
       99 xu392.                          cell1              1.00 
      100 xu402.                          cell1              1.00 
      101 xu412.                          cell1              1.00 
      102 xu422.                          cell1              1.00 
      103 xu432.                          cell1              1.00 
      104 xu442.                          cell1              1.00 
      105 xu452.                          cell1              1.00 
      106 xu462.                          cell1              1.00 
      107 xu472.                          cell1              1.00 
      108 xu482.                          cell3              1.00 
      109 xu492.                          cell1              1.00 
      110 xu502.                          cell1              1.00 
      111 xu512.                          cell1              1.00 
      112 xu522.                          cell1              1.00 
      113 xu532.                          cell1              1.00 
      114 xu542.                          cell1              1.00 
      115 xu552.                          cell1              1.00 
      116 xu562.                          cell1              1.00 
      117 xu572.                          cell1              1.00 
      118 xu582.                          cell1              1.00 
      119 xu592.                          cell1              1.00 
      120 xu602.                          cell2              1.00 
1****** HSPICE -- C-2009.03-SP1 32-BIT (May 25 2009) winnt ******               
 ******  
 ** 60 cascaded, 2 paralleled cells

  ******  diode model parameters tnom=  25.000 temp=  25.000 *****
 ********************************************************
 *** common model parameters model name:   0:diode_b1****
 ********************************************************

     names  values   units     names  values   units     names  values   units
     -----  ------   -----     -----  ------   -----     -----  ------   -----

   1*** dc breakdown parameters ***
       vb=   0.    volts        ibv=   1.00m amps   

   2*** parasitic resistance parameters ***
       rs=   0.    ohms   

   3*** capacitance parameters ***
       fc= 500.00m              fcs= 500.00m                m= 500.00m        
     mjsw= 330.00m               pb= 800.00m volts        php= 800.00m volts  
       tt=   0.    secs         cjo=   0.    f/area       cjp=   0.    f/pj   

   4*** temperature effect parameters ***
     tlev=   0.               tlevc=   0.                 tcv=   0.    v/deg k
      trs=   0.    /deg         cta=   0.    /deg         ctp=   0.    /deg   
      xti=   3.00            xtitun=   3.00               keg=   1.00         
       eg=   1.11  ev          gap1= 702.00u  ev/deg     gap2=   1.11k  deg   
     ttt1=   0.    /deg        ttt2=   0.    /deg2        tm1=   0.    /deg   
      tm2=   0.    /deg2        tpb=   0.    v/deg k     tphp=   0.    v/deg k
     tref=  25.00   deg c 

   5*** noise parameters ***
       kf=   0.                  af=   1.00         

   ***  level   1  model parameters  ***

    level=   1.00                is=  10.00u amps         jsw=   0.    amps   
        n=   1.00               nbv=   1.00                ik=   0.    amp    
     area=   1.00                pj=   0.                 ikr=   0.    amp    
    expli=   0.    amps      explir=   0.    amps        jtun=   0.    amps   
   jtunsw=   0.    amps        ntun=  30.00         
  
 ********************************************************
 *** common model parameters model name:   0:diode_b2****
 ********************************************************

     names  values   units     names  values   units     names  values   units
     -----  ------   -----     -----  ------   -----     -----  ------   -----

   1*** dc breakdown parameters ***
       vb=   0.    volts        ibv=   1.00m amps   

   2*** parasitic resistance parameters ***
       rs=   0.    ohms   

   3*** capacitance parameters ***
       fc= 500.00m              fcs= 500.00m                m= 500.00m        
     mjsw= 330.00m               pb= 800.00m volts        php= 800.00m volts  
       tt=   0.    secs         cjo=   0.    f/area       cjp=   0.    f/pj   

   4*** temperature effect parameters ***
     tlev=   0.               tlevc=   0.                 tcv=   0.    v/deg k
      trs=   0.    /deg         cta=   0.    /deg         ctp=   0.    /deg   
      xti=   3.00            xtitun=   3.00               keg=   1.00         
       eg=   1.11  ev          gap1= 702.00u  ev/deg     gap2=   1.11k  deg   
     ttt1=   0.    /deg        ttt2=   0.    /deg2        tm1=   0.    /deg   
      tm2=   0.    /deg2        tpb=   0.    v/deg k     tphp=   0.    v/deg k
     tref=  25.00   deg c 

   5*** noise parameters ***
       kf=   0.                  af=   1.00         

   ***  level   1  model parameters  ***

    level=   1.00                is=  10.00u amps         jsw=   0.    amps   
        n=   1.00               nbv=   1.00                ik=   0.    amp    
     area=   1.00                pj=   0.                 ikr=   0.    amp    
    expli=   0.    amps      explir=   0.    amps        jtun=   0.    amps   
   jtunsw=   0.    amps        ntun=  30.00         
  
 ********************************************************
 *** common model parameters model name:   1:diode1  ****
 ********************************************************

     names  values   units     names  values   units     names  values   units
     -----  ------   -----     -----  ------   -----     -----  ------   -----

   1*** dc breakdown parameters ***
       vb=   0.    volts        ibv=   1.00m amps   

   2*** parasitic resistance parameters ***
       rs=   0.    ohms   

   3*** capacitance parameters ***
       fc= 500.00m              fcs= 500.00m                m= 500.00m        
     mjsw= 330.00m               pb= 800.00m volts        php= 800.00m volts  
       tt=   0.    secs         cjo=   0.    f/area       cjp=   0.    f/pj   

   4*** temperature effect parameters ***
     tlev=   0.               tlevc=   0.                 tcv=   0.    v/deg k
      trs=   0.    /deg         cta=   0.    /deg         ctp=   0.    /deg   
      xti=   3.00            xtitun=   3.00               keg=   1.00         
       eg=   1.11  ev          gap1= 702.00u  ev/deg     gap2=   1.11k  deg   
     ttt1=   0.    /deg        ttt2=   0.    /deg2        tm1=   0.    /deg   
      tm2=   0.    /deg2        tpb=   0.    v/deg k     tphp=   0.    v/deg k
     tref=  25.00   deg c 

   5*** noise parameters ***
       kf=   0.                  af=   1.00         

   ***  level   1  model parameters  ***

    level=   1.00                is=   1.00u amps         jsw=   0.    amps   
        n=   1.50               nbv=   1.50                ik=   0.    amp    
     area=   1.00                pj=   0.                 ikr=   0.    amp    
    expli=   0.    amps      explir=   0.    amps        jtun=   0.    amps   
   jtunsw=   0.    amps        ntun=  30.00         
  
 ********************************************************
 *** common model parameters model name:   2:diode1  ****
 ********************************************************

     names  values   units     names  values   units     names  values   units
     -----  ------   -----     -----  ------   -----     -----  ------   -----

   1*** dc breakdown parameters ***
       vb=   0.    volts        ibv=   1.00m amps   

   2*** parasitic resistance parameters ***
       rs=   0.    ohms   

   3*** capacitance parameters ***
       fc= 500.00m              fcs= 500.00m                m= 500.00m        
     mjsw= 330.00m               pb= 800.00m volts        php= 800.00m volts  
       tt=   0.    secs         cjo=   0.    f/area       cjp=   0.    f/pj   

   4*** temperature effect parameters ***
     tlev=   0.               tlevc=   0.                 tcv=   0.    v/deg k
      trs=   0.    /deg         cta=   0.    /deg         ctp=   0.    /deg   
      xti=   3.00            xtitun=   3.00               keg=   1.00         
       eg=   1.11  ev          gap1= 702.00u  ev/deg     gap2=   1.11k  deg   
     ttt1=   0.    /deg        ttt2=   0.    /deg2        tm1=   0.    /deg   
      tm2=   0.    /deg2        tpb=   0.    v/deg k     tphp=   0.    v/deg k
     tref=  25.00   deg c 

   5*** noise parameters ***
       kf=   0.                  af=   1.00         

   ***  level   1  model parameters  ***

    level=   1.00                is=   1.00u amps         jsw=   0.    amps   
        n=   1.50               nbv=   1.50                ik=   0.    amp    
     area=   1.00                pj=   0.                 ikr=   0.    amp    
    expli=   0.    amps      explir=   0.    amps        jtun=   0.    amps   
   jtunsw=   0.    amps        ntun=  30.00         
  
 ********************************************************
 *** common model parameters model name:   3:diode1  ****
 ********************************************************

     names  values   units     names  values   units     names  values   units
     -----  ------   -----     -----  ------   -----     -----  ------   -----

   1*** dc breakdown parameters ***
       vb=   0.    volts        ibv=   1.00m amps   

   2*** parasitic resistance parameters ***
       rs=   0.    ohms   

   3*** capacitance parameters ***
       fc= 500.00m              fcs= 500.00m                m= 500.00m        
     mjsw= 330.00m               pb= 800.00m volts        php= 800.00m volts  
       tt=   0.    secs         cjo=   0.    f/area       cjp=   0.    f/pj   

   4*** temperature effect parameters ***
     tlev=   0.               tlevc=   0.                 tcv=   0.    v/deg k
      trs=   0.    /deg         cta=   0.    /deg         ctp=   0.    /deg   
      xti=   3.00            xtitun=   3.00               keg=   1.00         
       eg=   1.11  ev          gap1= 702.00u  ev/deg     gap2=   1.11k  deg   
     ttt1=   0.    /deg        ttt2=   0.    /deg2        tm1=   0.    /deg   
      tm2=   0.    /deg2        tpb=   0.    v/deg k     tphp=   0.    v/deg k
     tref=  25.00   deg c 

   5*** noise parameters ***
       kf=   0.                  af=   1.00         

   ***  level   1  model parameters  ***

    level=   1.00                is=   1.00u amps         jsw=   0.    amps   
        n=   1.50               nbv=   1.50                ik=   0.    amp    
     area=   1.00                pj=   0.                 ikr=   0.    amp    
    expli=   0.    amps      explir=   0.    amps        jtun=   0.    amps   
   jtunsw=   0.    amps        ntun=  30.00         
  
 ********************************************************
 *** common model parameters model name:   4:diode1  ****
 ********************************************************

     names  values   units     names  values   units     names  values   units
     -----  ------   -----     -----  ------   -----     -----  ------   -----

   1*** dc breakdown parameters ***
       vb=   0.    volts        ibv=   1.00m amps   

   2*** parasitic resistance parameters ***
       rs=   0.    ohms   

   3*** capacitance parameters ***
       fc= 500.00m              fcs= 500.00m                m= 500.00m        
     mjsw= 330.00m               pb= 800.00m volts        php= 800.00m volts  
       tt=   0.    secs         cjo=   0.    f/area       cjp=   0.    f/pj   

   4*** temperature effect parameters ***
     tlev=   0.               tlevc=   0.                 tcv=   0.    v/deg k
      trs=   0.    /deg         cta=   0.    /deg         ctp=   0.    /deg   
      xti=   3.00            xtitun=   3.00               keg=   1.00         
       eg=   1.11  ev          gap1= 702.00u  ev/deg     gap2=   1.11k  deg   
     ttt1=   0.    /deg        ttt2=   0.    /deg2        tm1=   0.    /deg   
      tm2=   0.    /deg2        tpb=   0.    v/deg k     tphp=   0.    v/deg k
     tref=  25.00   deg c 

   5*** noise parameters ***
       kf=   0.                  af=   1.00         

   ***  level   1  model parameters  ***

    level=   1.00                is=   1.00u amps         jsw=   0.    amps   
        n=   1.50               nbv=   1.50                ik=   0.    amp    
     area=   1.00                pj=   0.                 ikr=   0.    amp    
    expli=   0.    amps      explir=   0.    amps        jtun=   0.    amps   
   jtunsw=   0.    amps        ntun=  30.00         
  
 ********************************************************
 *** common model parameters model name:   5:diode1  ****
 ********************************************************

     names  values   units     names  values   units     names  values   units
     -----  ------   -----     -----  ------   -----     -----  ------   -----

   1*** dc breakdown parameters ***
       vb=   0.    volts        ibv=   1.00m amps   

   2*** parasitic resistance parameters ***
       rs=   0.    ohms   

   3*** capacitance parameters ***
       fc= 500.00m              fcs= 500.00m                m= 500.00m        
     mjsw= 330.00m               pb= 800.00m volts        php= 800.00m volts  
       tt=   0.    secs         cjo=   0.    f/area       cjp=   0.    f/pj   

   4*** temperature effect parameters ***
     tlev=   0.               tlevc=   0.                 tcv=   0.    v/deg k
      trs=   0.    /deg         cta=   0.    /deg         ctp=   0.    /deg   
      xti=   3.00            xtitun=   3.00               keg=   1.00         
       eg=   1.11  ev          gap1= 702.00u  ev/deg     gap2=   1.11k  deg   
     ttt1=   0.    /deg        ttt2=   0.    /deg2        tm1=   0.    /deg   
      tm2=   0.    /deg2        tpb=   0.    v/deg k     tphp=   0.    v/deg k
     tref=  25.00   deg c 

   5*** noise parameters ***
       kf=   0.                  af=   1.00         

   ***  level   1  model parameters  ***

    level=   1.00                is=   1.00u amps         jsw=   0.    amps   
        n=   1.50               nbv=   1.50                ik=   0.    amp    
     area=   1.00                pj=   0.                 ikr=   0.    amp    
    expli=   0.    amps      explir=   0.    amps        jtun=   0.    amps   
   jtunsw=   0.    amps        ntun=  30.00         
  
 ********************************************************
 *** common model parameters model name:   6:diode1  ****
 ********************************************************

     names  values   units     names  values   units     names  values   units
     -----  ------   -----     -----  ------   -----     -----  ------   -----

   1*** dc breakdown parameters ***
       vb=   0.    volts        ibv=   1.00m amps   

   2*** parasitic resistance parameters ***
       rs=   0.    ohms   

   3*** capacitance parameters ***
       fc= 500.00m              fcs= 500.00m                m= 500.00m        
     mjsw= 330.00m               pb= 800.00m volts        php= 800.00m volts  
       tt=   0.    secs         cjo=   0.    f/area       cjp=   0.    f/pj   

   4*** temperature effect parameters ***
     tlev=   0.               tlevc=   0.                 tcv=   0.    v/deg k
      trs=   0.    /deg         cta=   0.    /deg         ctp=   0.    /deg   
      xti=   3.00            xtitun=   3.00               keg=   1.00         
       eg=   1.11  ev          gap1= 702.00u  ev/deg     gap2=   1.11k  deg   
     ttt1=   0.    /deg        ttt2=   0.    /deg2        tm1=   0.    /deg   
      tm2=   0.    /deg2        tpb=   0.    v/deg k     tphp=   0.    v/deg k
     tref=  25.00   deg c 

   5*** noise parameters ***
       kf=   0.                  af=   1.00         

   ***  level   1  model parameters  ***

    level=   1.00                is=   1.00u amps         jsw=   0.    amps   
        n=   1.50               nbv=   1.50                ik=   0.    amp    
     area=   1.00                pj=   0.                 ikr=   0.    amp    
    expli=   0.    amps      explir=   0.    amps        jtun=   0.    amps   
   jtunsw=   0.    amps        ntun=  30.00         
  
 ********************************************************
 *** common model parameters model name:   7:diode1  ****
 ********************************************************

     names  values   units     names  values   units     names  values   units
     -----  ------   -----     -----  ------   -----     -----  ------   -----

   1*** dc breakdown parameters ***
       vb=   0.    volts        ibv=   1.00m amps   

   2*** parasitic resistance parameters ***
       rs=   0.    ohms   

   3*** capacitance parameters ***
       fc= 500.00m              fcs= 500.00m                m= 500.00m        
     mjsw= 330.00m               pb= 800.00m volts        php= 800.00m volts  
       tt=   0.    secs         cjo=   0.    f/area       cjp=   0.    f/pj   

   4*** temperature effect parameters ***
     tlev=   0.               tlevc=   0.                 tcv=   0.    v/deg k
      trs=   0.    /deg         cta=   0.    /deg         ctp=   0.    /deg   
      xti=   3.00            xtitun=   3.00               keg=   1.00         
       eg=   1.11  ev          gap1= 702.00u  ev/deg     gap2=   1.11k  deg   
     ttt1=   0.    /deg        ttt2=   0.    /deg2        tm1=   0.    /deg   
      tm2=   0.    /deg2        tpb=   0.    v/deg k     tphp=   0.    v/deg k
     tref=  25.00   deg c 

   5*** noise parameters ***
       kf=   0.                  af=   1.00         

   ***  level   1  model parameters  ***

    level=   1.00                is=   1.00u amps         jsw=   0.    amps   
        n=   1.50               nbv=   1.50                ik=   0.    amp    
     area=   1.00                pj=   0.                 ikr=   0.    amp    
    expli=   0.    amps      explir=   0.    amps        jtun=   0.    amps   
   jtunsw=   0.    amps        ntun=  30.00         
  
 ********************************************************
 *** common model parameters model name:   8:diode1  ****
 ********************************************************

     names  values   units     names  values   units     names  values   units
     -----  ------   -----     -----  ------   -----     -----  ------   -----

   1*** dc breakdown parameters ***
       vb=   0.    volts        ibv=   1.00m amps   

   2*** parasitic resistance parameters ***
       rs=   0.    ohms   

   3*** capacitance parameters ***
       fc= 500.00m              fcs= 500.00m                m= 500.00m        
     mjsw= 330.00m               pb= 800.00m volts        php= 800.00m volts  
       tt=   0.    secs         cjo=   0.    f/area       cjp=   0.    f/pj   

   4*** temperature effect parameters ***
     tlev=   0.               tlevc=   0.                 tcv=   0.    v/deg k
      trs=   0.    /deg         cta=   0.    /deg         ctp=   0.    /deg   
      xti=   3.00            xtitun=   3.00               keg=   1.00         
       eg=   1.11  ev          gap1= 702.00u  ev/deg     gap2=   1.11k  deg   
     ttt1=   0.    /deg        ttt2=   0.    /deg2        tm1=   0.    /deg   
      tm2=   0.    /deg2        tpb=   0.    v/deg k     tphp=   0.    v/deg k
     tref=  25.00   deg c 

   5*** noise parameters ***
       kf=   0.                  af=   1.00         

   ***  level   1  model parameters  ***

    level=   1.00                is=   1.00u amps         jsw=   0.    amps   
        n=   1.50               nbv=   1.50                ik=   0.    amp    
     area=   1.00                pj=   0.                 ikr=   0.    amp    
    expli=   0.    amps      explir=   0.    amps        jtun=   0.    amps   
   jtunsw=   0.    amps        ntun=  30.00         
  
 ********************************************************
 *** common model parameters model name:   9:diode1  ****
 ********************************************************

     names  values   units     names  values   units     names  values   units
     -----  ------   -----     -----  ------   -----     -----  ------   -----

   1*** dc breakdown parameters ***
       vb=   0.    volts        ibv=   1.00m amps   

   2*** parasitic resistance parameters ***
       rs=   0.    ohms   

   3*** capacitance parameters ***
       fc= 500.00m              fcs= 500.00m                m= 500.00m        
     mjsw= 330.00m               pb= 800.00m volts        php= 800.00m volts  
       tt=   0.    secs         cjo=   0.    f/area       cjp=   0.    f/pj   

   4*** temperature effect parameters ***
     tlev=   0.               tlevc=   0.                 tcv=   0.    v/deg k
      trs=   0.    /deg         cta=   0.    /deg         ctp=   0.    /deg   
      xti=   3.00            xtitun=   3.00               keg=   1.00         
       eg=   1.11  ev          gap1= 702.00u  ev/deg     gap2=   1.11k  deg   
     ttt1=   0.    /deg        ttt2=   0.    /deg2        tm1=   0.    /deg   
      tm2=   0.    /deg2        tpb=   0.    v/deg k     tphp=   0.    v/deg k
     tref=  25.00   deg c 

   5*** noise parameters ***
       kf=   0.                  af=   1.00         

   ***  level   1  model parameters  ***

    level=   1.00                is=   1.00u amps         jsw=   0.    amps   
        n=   1.50               nbv=   1.50                ik=   0.    amp    
     area=   1.00                pj=   0.                 ikr=   0.    amp    
    expli=   0.    amps      explir=   0.    amps        jtun=   0.    amps   
   jtunsw=   0.    amps        ntun=  30.00         
  
 ********************************************************
 *** common model parameters model name:  10:diode1  ****
 ********************************************************

     names  values   units     names  values   units     names  values   units
     -----  ------   -----     -----  ------   -----     -----  ------   -----

   1*** dc breakdown parameters ***
       vb=   0.    volts        ibv=   1.00m amps   

   2*** parasitic resistance parameters ***
       rs=   0.    ohms   

   3*** capacitance parameters ***
       fc= 500.00m              fcs= 500.00m                m= 500.00m        
     mjsw= 330.00m               pb= 800.00m volts        php= 800.00m volts  
       tt=   0.    secs         cjo=   0.    f/area       cjp=   0.    f/pj   

   4*** temperature effect parameters ***
     tlev=   0.               tlevc=   0.                 tcv=   0.    v/deg k
      trs=   0.    /deg         cta=   0.    /deg         ctp=   0.    /deg   
      xti=   3.00            xtitun=   3.00               keg=   1.00         
       eg=   1.11  ev          gap1= 702.00u  ev/deg     gap2=   1.11k  deg   
     ttt1=   0.    /deg        ttt2=   0.    /deg2        tm1=   0.    /deg   
      tm2=   0.    /deg2        tpb=   0.    v/deg k     tphp=   0.    v/deg k
     tref=  25.00   deg c 

   5*** noise parameters ***
       kf=   0.                  af=   1.00         

   ***  level   1  model parameters  ***

    level=   1.00                is=   1.00u amps         jsw=   0.    amps   
        n=   1.50               nbv=   1.50                ik=   0.    amp    
     area=   1.00                pj=   0.                 ikr=   0.    amp    
    expli=   0.    amps      explir=   0.    amps        jtun=   0.    amps   
   jtunsw=   0.    amps        ntun=  30.00         
  
 ********************************************************
 *** common model parameters model name:  11:diode1  ****
 ********************************************************

     names  values   units     names  values   units     names  values   units
     -----  ------   -----     -----  ------   -----     -----  ------   -----

   1*** dc breakdown parameters ***
       vb=   0.    volts        ibv=   1.00m amps   

   2*** parasitic resistance parameters ***
       rs=   0.    ohms   

   3*** capacitance parameters ***
       fc= 500.00m              fcs= 500.00m                m= 500.00m        
     mjsw= 330.00m               pb= 800.00m volts        php= 800.00m volts  
       tt=   0.    secs         cjo=   0.    f/area       cjp=   0.    f/pj   

   4*** temperature effect parameters ***
     tlev=   0.               tlevc=   0.                 tcv=   0.    v/deg k
      trs=   0.    /deg         cta=   0.    /deg         ctp=   0.    /deg   
      xti=   3.00            xtitun=   3.00               keg=   1.00         
       eg=   1.11  ev          gap1= 702.00u  ev/deg     gap2=   1.11k  deg   
     ttt1=   0.    /deg        ttt2=   0.    /deg2        tm1=   0.    /deg   
      tm2=   0.    /deg2        tpb=   0.    v/deg k     tphp=   0.    v/deg k
     tref=  25.00   deg c 

   5*** noise parameters ***
       kf=   0.                  af=   1.00         

   ***  level   1  model parameters  ***

    level=   1.00                is=   1.00u amps         jsw=   0.    amps   
        n=   1.50               nbv=   1.50                ik=   0.    amp    
     area=   1.00                pj=   0.                 ikr=   0.    amp    
    expli=   0.    amps      explir=   0.    amps        jtun=   0.    amps   
   jtunsw=   0.    amps        ntun=  30.00         
  
 ********************************************************
 *** common model parameters model name:  12:diode1  ****
 ********************************************************

     names  values   units     names  values   units     names  values   units
     -----  ------   -----     -----  ------   -----     -----  ------   -----

   1*** dc breakdown parameters ***
       vb=   0.    volts        ibv=   1.00m amps   

   2*** parasitic resistance parameters ***
       rs=   0.    ohms   

   3*** capacitance parameters ***
       fc= 500.00m              fcs= 500.00m                m= 500.00m        
     mjsw= 330.00m               pb= 800.00m volts        php= 800.00m volts  
       tt=   0.    secs         cjo=   0.    f/area       cjp=   0.    f/pj   

   4*** temperature effect parameters ***
     tlev=   0.               tlevc=   0.                 tcv=   0.    v/deg k
      trs=   0.    /deg         cta=   0.    /deg         ctp=   0.    /deg   
      xti=   3.00            xtitun=   3.00               keg=   1.00         
       eg=   1.11  ev          gap1= 702.00u  ev/deg     gap2=   1.11k  deg   
     ttt1=   0.    /deg        ttt2=   0.    /deg2        tm1=   0.    /deg   
      tm2=   0.    /deg2        tpb=   0.    v/deg k     tphp=   0.    v/deg k
     tref=  25.00   deg c 

   5*** noise parameters ***
       kf=   0.                  af=   1.00         

   ***  level   1  model parameters  ***

    level=   1.00                is=   1.00u amps         jsw=   0.    amps   
        n=   1.50               nbv=   1.50                ik=   0.    amp    
     area=   1.00                pj=   0.                 ikr=   0.    amp    
    expli=   0.    amps      explir=   0.    amps        jtun=   0.    amps   
   jtunsw=   0.    amps        ntun=  30.00         
  
 ********************************************************
 *** common model parameters model name:  13:diode1  ****
 ********************************************************

     names  values   units     names  values   units     names  values   units
     -----  ------   -----     -----  ------   -----     -----  ------   -----

   1*** dc breakdown parameters ***
       vb=   0.    volts        ibv=   1.00m amps   

   2*** parasitic resistance parameters ***
       rs=   0.    ohms   

   3*** capacitance parameters ***
       fc= 500.00m              fcs= 500.00m                m= 500.00m        
     mjsw= 330.00m               pb= 800.00m volts        php= 800.00m volts  
       tt=   0.    secs         cjo=   0.    f/area       cjp=   0.    f/pj   

   4*** temperature effect parameters ***
     tlev=   0.               tlevc=   0.                 tcv=   0.    v/deg k
      trs=   0.    /deg         cta=   0.    /deg         ctp=   0.    /deg   
      xti=   3.00            xtitun=   3.00               keg=   1.00         
       eg=   1.11  ev          gap1= 702.00u  ev/deg     gap2=   1.11k  deg   
     ttt1=   0.    /deg        ttt2=   0.    /deg2        tm1=   0.    /deg   
      tm2=   0.    /deg2        tpb=   0.    v/deg k     tphp=   0.    v/deg k
     tref=  25.00   deg c 

   5*** noise parameters ***
       kf=   0.                  af=   1.00         

   ***  level   1  model parameters  ***

    level=   1.00                is=   1.00u amps         jsw=   0.    amps   
        n=   1.50               nbv=   1.50                ik=   0.    amp    
     area=   1.00                pj=   0.                 ikr=   0.    amp    
    expli=   0.    amps      explir=   0.    amps        jtun=   0.    amps   
   jtunsw=   0.    amps        ntun=  30.00         
  
 ********************************************************
 *** common model parameters model name:  14:diode1  ****
 ********************************************************

     names  values   units     names  values   units     names  values   units
     -----  ------   -----     -----  ------   -----     -----  ------   -----

   1*** dc breakdown parameters ***
       vb=   0.    volts        ibv=   1.00m amps   

   2*** parasitic resistance parameters ***
       rs=   0.    ohms   

   3*** capacitance parameters ***
       fc= 500.00m              fcs= 500.00m                m= 500.00m        
     mjsw= 330.00m               pb= 800.00m volts        php= 800.00m volts  
       tt=   0.    secs         cjo=   0.    f/area       cjp=   0.    f/pj   

   4*** temperature effect parameters ***
     tlev=   0.               tlevc=   0.                 tcv=   0.    v/deg k
      trs=   0.    /deg         cta=   0.    /deg         ctp=   0.    /deg   
      xti=   3.00            xtitun=   3.00               keg=   1.00         
       eg=   1.11  ev          gap1= 702.00u  ev/deg     gap2=   1.11k  deg   
     ttt1=   0.    /deg        ttt2=   0.    /deg2        tm1=   0.    /deg   
      tm2=   0.    /deg2        tpb=   0.    v/deg k     tphp=   0.    v/deg k
     tref=  25.00   deg c 

   5*** noise parameters ***
       kf=   0.                  af=   1.00         

   ***  level   1  model parameters  ***

    level=   1.00                is=   1.00u amps         jsw=   0.    amps   
        n=   1.50               nbv=   1.50                ik=   0.    amp    
     area=   1.00                pj=   0.                 ikr=   0.    amp    
    expli=   0.    amps      explir=   0.    amps        jtun=   0.    amps   
   jtunsw=   0.    amps        ntun=  30.00         
  
 ********************************************************
 *** common model parameters model name:  15:diode1  ****
 ********************************************************

     names  values   units     names  values   units     names  values   units
     -----  ------   -----     -----  ------   -----     -----  ------   -----

   1*** dc breakdown parameters ***
       vb=   0.    volts        ibv=   1.00m amps   

   2*** parasitic resistance parameters ***
       rs=   0.    ohms   

   3*** capacitance parameters ***
       fc= 500.00m              fcs= 500.00m                m= 500.00m        
     mjsw= 330.00m               pb= 800.00m volts        php= 800.00m volts  
       tt=   0.    secs         cjo=   0.    f/area       cjp=   0.    f/pj   

   4*** temperature effect parameters ***
     tlev=   0.               tlevc=   0.                 tcv=   0.    v/deg k
      trs=   0.    /deg         cta=   0.    /deg         ctp=   0.    /deg   
      xti=   3.00            xtitun=   3.00               keg=   1.00         
       eg=   1.11  ev          gap1= 702.00u  ev/deg     gap2=   1.11k  deg   
     ttt1=   0.    /deg        ttt2=   0.    /deg2        tm1=   0.    /deg   
      tm2=   0.    /deg2        tpb=   0.    v/deg k     tphp=   0.    v/deg k
     tref=  25.00   deg c 

   5*** noise parameters ***
       kf=   0.                  af=   1.00         

   ***  level   1  model parameters  ***

    level=   1.00                is=   1.00u amps         jsw=   0.    amps   
        n=   1.50               nbv=   1.50                ik=   0.    amp    
     area=   1.00                pj=   0.                 ikr=   0.    amp    
    expli=   0.    amps      explir=   0.    amps        jtun=   0.    amps   
   jtunsw=   0.    amps        ntun=  30.00         
  
 ********************************************************
 *** common model parameters model name:  16:diode1  ****
 ********************************************************

     names  values   units     names  values   units     names  values   units
     -----  ------   -----     -----  ------   -----     -----  ------   -----

   1*** dc breakdown parameters ***
       vb=   0.    volts        ibv=   1.00m amps   

   2*** parasitic resistance parameters ***
       rs=   0.    ohms   

   3*** capacitance parameters ***
       fc= 500.00m              fcs= 500.00m                m= 500.00m        
     mjsw= 330.00m               pb= 800.00m volts        php= 800.00m volts  
       tt=   0.    secs         cjo=   0.    f/area       cjp=   0.    f/pj   

   4*** temperature effect parameters ***
     tlev=   0.               tlevc=   0.                 tcv=   0.    v/deg k
      trs=   0.    /deg         cta=   0.    /deg         ctp=   0.    /deg   
      xti=   3.00            xtitun=   3.00               keg=   1.00         
       eg=   1.11  ev          gap1= 702.00u  ev/deg     gap2=   1.11k  deg   
     ttt1=   0.    /deg        ttt2=   0.    /deg2        tm1=   0.    /deg   
      tm2=   0.    /deg2        tpb=   0.    v/deg k     tphp=   0.    v/deg k
     tref=  25.00   deg c 

   5*** noise parameters ***
       kf=   0.                  af=   1.00         

   ***  level   1  model parameters  ***

    level=   1.00                is=   1.00u amps         jsw=   0.    amps   
        n=   1.50               nbv=   1.50                ik=   0.    amp    
     area=   1.00                pj=   0.                 ikr=   0.    amp    
    expli=   0.    amps      explir=   0.    amps        jtun=   0.    amps   
   jtunsw=   0.    amps        ntun=  30.00         
  
 ********************************************************
 *** common model parameters model name:  17:diode1  ****
 ********************************************************

     names  values   units     names  values   units     names  values   units
     -----  ------   -----     -----  ------   -----     -----  ------   -----

   1*** dc breakdown parameters ***
       vb=   0.    volts        ibv=   1.00m amps   

   2*** parasitic resistance parameters ***
       rs=   0.    ohms   

   3*** capacitance parameters ***
       fc= 500.00m              fcs= 500.00m                m= 500.00m        
     mjsw= 330.00m               pb= 800.00m volts        php= 800.00m volts  
       tt=   0.    secs         cjo=   0.    f/area       cjp=   0.    f/pj   

   4*** temperature effect parameters ***
     tlev=   0.               tlevc=   0.                 tcv=   0.    v/deg k
      trs=   0.    /deg         cta=   0.    /deg         ctp=   0.    /deg   
      xti=   3.00            xtitun=   3.00               keg=   1.00         
       eg=   1.11  ev          gap1= 702.00u  ev/deg     gap2=   1.11k  deg   
     ttt1=   0.    /deg        ttt2=   0.    /deg2        tm1=   0.    /deg   
      tm2=   0.    /deg2        tpb=   0.    v/deg k     tphp=   0.    v/deg k
     tref=  25.00   deg c 

   5*** noise parameters ***
       kf=   0.                  af=   1.00         

   ***  level   1  model parameters  ***

    level=   1.00                is=   1.00u amps         jsw=   0.    amps   
        n=   1.50               nbv=   1.50                ik=   0.    amp    
     area=   1.00                pj=   0.                 ikr=   0.    amp    
    expli=   0.    amps      explir=   0.    amps        jtun=   0.    amps   
   jtunsw=   0.    amps        ntun=  30.00         
  
 ********************************************************
 *** common model parameters model name:  18:diode1  ****
 ********************************************************

     names  values   units     names  values   units     names  values   units
     -----  ------   -----     -----  ------   -----     -----  ------   -----

   1*** dc breakdown parameters ***
       vb=   0.    volts        ibv=   1.00m amps   

   2*** parasitic resistance parameters ***
       rs=   0.    ohms   

   3*** capacitance parameters ***
       fc= 500.00m              fcs= 500.00m                m= 500.00m        
     mjsw= 330.00m               pb= 800.00m volts        php= 800.00m volts  
       tt=   0.    secs         cjo=   0.    f/area       cjp=   0.    f/pj   

   4*** temperature effect parameters ***
     tlev=   0.               tlevc=   0.                 tcv=   0.    v/deg k
      trs=   0.    /deg         cta=   0.    /deg         ctp=   0.    /deg   
      xti=   3.00            xtitun=   3.00               keg=   1.00         
       eg=   1.11  ev          gap1= 702.00u  ev/deg     gap2=   1.11k  deg   
     ttt1=   0.    /deg        ttt2=   0.    /deg2        tm1=   0.    /deg   
      tm2=   0.    /deg2        tpb=   0.    v/deg k     tphp=   0.    v/deg k
     tref=  25.00   deg c 

   5*** noise parameters ***
       kf=   0.                  af=   1.00         

   ***  level   1  model parameters  ***

    level=   1.00                is=   1.00u amps         jsw=   0.    amps   
        n=   1.50               nbv=   1.50                ik=   0.    amp    
     area=   1.00                pj=   0.                 ikr=   0.    amp    
    expli=   0.    amps      explir=   0.    amps        jtun=   0.    amps   
   jtunsw=   0.    amps        ntun=  30.00         
  
 ********************************************************
 *** common model parameters model name:  19:diode1  ****
 ********************************************************

     names  values   units     names  values   units     names  values   units
     -----  ------   -----     -----  ------   -----     -----  ------   -----

   1*** dc breakdown parameters ***
       vb=   0.    volts        ibv=   1.00m amps   

   2*** parasitic resistance parameters ***
       rs=   0.    ohms   

   3*** capacitance parameters ***
       fc= 500.00m              fcs= 500.00m                m= 500.00m        
     mjsw= 330.00m               pb= 800.00m volts        php= 800.00m volts  
       tt=   0.    secs         cjo=   0.    f/area       cjp=   0.    f/pj   

   4*** temperature effect parameters ***
     tlev=   0.               tlevc=   0.                 tcv=   0.    v/deg k
      trs=   0.    /deg         cta=   0.    /deg         ctp=   0.    /deg   
      xti=   3.00            xtitun=   3.00               keg=   1.00         
       eg=   1.11  ev          gap1= 702.00u  ev/deg     gap2=   1.11k  deg   
     ttt1=   0.    /deg        ttt2=   0.    /deg2        tm1=   0.    /deg   
      tm2=   0.    /deg2        tpb=   0.    v/deg k     tphp=   0.    v/deg k
     tref=  25.00   deg c 

   5*** noise parameters ***
       kf=   0.                  af=   1.00         

   ***  level   1  model parameters  ***

    level=   1.00                is=   1.00u amps         jsw=   0.    amps   
        n=   1.50               nbv=   1.50                ik=   0.    amp    
     area=   1.00                pj=   0.                 ikr=   0.    amp    
    expli=   0.    amps      explir=   0.    amps        jtun=   0.    amps   
   jtunsw=   0.    amps        ntun=  30.00         
  
 ********************************************************
 *** common model parameters model name:  20:diode1  ****
 ********************************************************

     names  values   units     names  values   units     names  values   units
     -----  ------   -----     -----  ------   -----     -----  ------   -----

   1*** dc breakdown parameters ***
       vb=   0.    volts        ibv=   1.00m amps   

   2*** parasitic resistance parameters ***
       rs=   0.    ohms   

   3*** capacitance parameters ***
       fc= 500.00m              fcs= 500.00m                m= 500.00m        
     mjsw= 330.00m               pb= 800.00m volts        php= 800.00m volts  
       tt=   0.    secs         cjo=   0.    f/area       cjp=   0.    f/pj   

   4*** temperature effect parameters ***
     tlev=   0.               tlevc=   0.                 tcv=   0.    v/deg k
      trs=   0.    /deg         cta=   0.    /deg         ctp=   0.    /deg   
      xti=   3.00            xtitun=   3.00               keg=   1.00         
       eg=   1.11  ev          gap1= 702.00u  ev/deg     gap2=   1.11k  deg   
     ttt1=   0.    /deg        ttt2=   0.    /deg2        tm1=   0.    /deg   
      tm2=   0.    /deg2        tpb=   0.    v/deg k     tphp=   0.    v/deg k
     tref=  25.00   deg c 

   5*** noise parameters ***
       kf=   0.                  af=   1.00         

   ***  level   1  model parameters  ***

    level=   1.00                is=   1.00u amps         jsw=   0.    amps   
        n=   1.50               nbv=   1.50                ik=   0.    amp    
     area=   1.00                pj=   0.                 ikr=   0.    amp    
    expli=   0.    amps      explir=   0.    amps        jtun=   0.    amps   
   jtunsw=   0.    amps        ntun=  30.00         
  
 ********************************************************
 *** common model parameters model name:  21:diode1  ****
 ********************************************************

     names  values   units     names  values   units     names  values   units
     -----  ------   -----     -----  ------   -----     -----  ------   -----

   1*** dc breakdown parameters ***
       vb=   0.    volts        ibv=   1.00m amps   

   2*** parasitic resistance parameters ***
       rs=   0.    ohms   

   3*** capacitance parameters ***
       fc= 500.00m              fcs= 500.00m                m= 500.00m        
     mjsw= 330.00m               pb= 800.00m volts        php= 800.00m volts  
       tt=   0.    secs         cjo=   0.    f/area       cjp=   0.    f/pj   

   4*** temperature effect parameters ***
     tlev=   0.               tlevc=   0.                 tcv=   0.    v/deg k
      trs=   0.    /deg         cta=   0.    /deg         ctp=   0.    /deg   
      xti=   3.00            xtitun=   3.00               keg=   1.00         
       eg=   1.11  ev          gap1= 702.00u  ev/deg     gap2=   1.11k  deg   
     ttt1=   0.    /deg        ttt2=   0.    /deg2        tm1=   0.    /deg   
      tm2=   0.    /deg2        tpb=   0.    v/deg k     tphp=   0.    v/deg k
     tref=  25.00   deg c 

   5*** noise parameters ***
       kf=   0.                  af=   1.00         

   ***  level   1  model parameters  ***

    level=   1.00                is=   1.00u amps         jsw=   0.    amps   
        n=   1.50               nbv=   1.50                ik=   0.    amp    
     area=   1.00                pj=   0.                 ikr=   0.    amp    
    expli=   0.    amps      explir=   0.    amps        jtun=   0.    amps   
   jtunsw=   0.    amps        ntun=  30.00         
  
 ********************************************************
 *** common model parameters model name:  22:diode1  ****
 ********************************************************

     names  values   units     names  values   units     names  values   units
     -----  ------   -----     -----  ------   -----     -----  ------   -----

   1*** dc breakdown parameters ***
       vb=   0.    volts        ibv=   1.00m amps   

   2*** parasitic resistance parameters ***
       rs=   0.    ohms   

   3*** capacitance parameters ***
       fc= 500.00m              fcs= 500.00m                m= 500.00m        
     mjsw= 330.00m               pb= 800.00m volts        php= 800.00m volts  
       tt=   0.    secs         cjo=   0.    f/area       cjp=   0.    f/pj   

   4*** temperature effect parameters ***
     tlev=   0.               tlevc=   0.                 tcv=   0.    v/deg k
      trs=   0.    /deg         cta=   0.    /deg         ctp=   0.    /deg   
      xti=   3.00            xtitun=   3.00               keg=   1.00         
       eg=   1.11  ev          gap1= 702.00u  ev/deg     gap2=   1.11k  deg   
     ttt1=   0.    /deg        ttt2=   0.    /deg2        tm1=   0.    /deg   
      tm2=   0.    /deg2        tpb=   0.    v/deg k     tphp=   0.    v/deg k
     tref=  25.00   deg c 

   5*** noise parameters ***
       kf=   0.                  af=   1.00         

   ***  level   1  model parameters  ***

    level=   1.00                is=   1.00u amps         jsw=   0.    amps   
        n=   1.50               nbv=   1.50                ik=   0.    amp    
     area=   1.00                pj=   0.                 ikr=   0.    amp    
    expli=   0.    amps      explir=   0.    amps        jtun=   0.    amps   
   jtunsw=   0.    amps        ntun=  30.00         
  
 ********************************************************
 *** common model parameters model name:  23:diode1  ****
 ********************************************************

     names  values   units     names  values   units     names  values   units
     -----  ------   -----     -----  ------   -----     -----  ------   -----

   1*** dc breakdown parameters ***
       vb=   0.    volts        ibv=   1.00m amps   

   2*** parasitic resistance parameters ***
       rs=   0.    ohms   

   3*** capacitance parameters ***
       fc= 500.00m              fcs= 500.00m                m= 500.00m        
     mjsw= 330.00m               pb= 800.00m volts        php= 800.00m volts  
       tt=   0.    secs         cjo=   0.    f/area       cjp=   0.    f/pj   

   4*** temperature effect parameters ***
     tlev=   0.               tlevc=   0.                 tcv=   0.    v/deg k
      trs=   0.    /deg         cta=   0.    /deg         ctp=   0.    /deg   
      xti=   3.00            xtitun=   3.00               keg=   1.00         
       eg=   1.11  ev          gap1= 702.00u  ev/deg     gap2=   1.11k  deg   
     ttt1=   0.    /deg        ttt2=   0.    /deg2        tm1=   0.    /deg   
      tm2=   0.    /deg2        tpb=   0.    v/deg k     tphp=   0.    v/deg k
     tref=  25.00   deg c 

   5*** noise parameters ***
       kf=   0.                  af=   1.00         

   ***  level   1  model parameters  ***

    level=   1.00                is=   1.00u amps         jsw=   0.    amps   
        n=   1.50               nbv=   1.50                ik=   0.    amp    
     area=   1.00                pj=   0.                 ikr=   0.    amp    
    expli=   0.    amps      explir=   0.    amps        jtun=   0.    amps   
   jtunsw=   0.    amps        ntun=  30.00         
  
 ********************************************************
 *** common model parameters model name:  24:diode1  ****
 ********************************************************

     names  values   units     names  values   units     names  values   units
     -----  ------   -----     -----  ------   -----     -----  ------   -----

   1*** dc breakdown parameters ***
       vb=   0.    volts        ibv=   1.00m amps   

   2*** parasitic resistance parameters ***
       rs=   0.    ohms   

   3*** capacitance parameters ***
       fc= 500.00m              fcs= 500.00m                m= 500.00m        
     mjsw= 330.00m               pb= 800.00m volts        php= 800.00m volts  
       tt=   0.    secs         cjo=   0.    f/area       cjp=   0.    f/pj   

   4*** temperature effect parameters ***
     tlev=   0.               tlevc=   0.                 tcv=   0.    v/deg k
      trs=   0.    /deg         cta=   0.    /deg         ctp=   0.    /deg   
      xti=   3.00            xtitun=   3.00               keg=   1.00         
       eg=   1.11  ev          gap1= 702.00u  ev/deg     gap2=   1.11k  deg   
     ttt1=   0.    /deg        ttt2=   0.    /deg2        tm1=   0.    /deg   
      tm2=   0.    /deg2        tpb=   0.    v/deg k     tphp=   0.    v/deg k
     tref=  25.00   deg c 

   5*** noise parameters ***
       kf=   0.                  af=   1.00         

   ***  level   1  model parameters  ***

    level=   1.00                is=   1.00u amps         jsw=   0.    amps   
        n=   1.50               nbv=   1.50                ik=   0.    amp    
     area=   1.00                pj=   0.                 ikr=   0.    amp    
    expli=   0.    amps      explir=   0.    amps        jtun=   0.    amps   
   jtunsw=   0.    amps        ntun=  30.00         
  
 ********************************************************
 *** common model parameters model name:  25:diode1  ****
 ********************************************************

     names  values   units     names  values   units     names  values   units
     -----  ------   -----     -----  ------   -----     -----  ------   -----

   1*** dc breakdown parameters ***
       vb=   0.    volts        ibv=   1.00m amps   

   2*** parasitic resistance parameters ***
       rs=   0.    ohms   

   3*** capacitance parameters ***
       fc= 500.00m              fcs= 500.00m                m= 500.00m        
     mjsw= 330.00m               pb= 800.00m volts        php= 800.00m volts  
       tt=   0.    secs         cjo=   0.    f/area       cjp=   0.    f/pj   

   4*** temperature effect parameters ***
     tlev=   0.               tlevc=   0.                 tcv=   0.    v/deg k
      trs=   0.    /deg         cta=   0.    /deg         ctp=   0.    /deg   
      xti=   3.00            xtitun=   3.00               keg=   1.00         
       eg=   1.11  ev          gap1= 702.00u  ev/deg     gap2=   1.11k  deg   
     ttt1=   0.    /deg        ttt2=   0.    /deg2        tm1=   0.    /deg   
      tm2=   0.    /deg2        tpb=   0.    v/deg k     tphp=   0.    v/deg k
     tref=  25.00   deg c 

   5*** noise parameters ***
       kf=   0.                  af=   1.00         

   ***  level   1  model parameters  ***

    level=   1.00                is=   1.00u amps         jsw=   0.    amps   
        n=   1.50               nbv=   1.50                ik=   0.    amp    
     area=   1.00                pj=   0.                 ikr=   0.    amp    
    expli=   0.    amps      explir=   0.    amps        jtun=   0.    amps   
   jtunsw=   0.    amps        ntun=  30.00         
  
 ********************************************************
 *** common model parameters model name:  26:diode1  ****
 ********************************************************

     names  values   units     names  values   units     names  values   units
     -----  ------   -----     -----  ------   -----     -----  ------   -----

   1*** dc breakdown parameters ***
       vb=   0.    volts        ibv=   1.00m amps   

   2*** parasitic resistance parameters ***
       rs=   0.    ohms   

   3*** capacitance parameters ***
       fc= 500.00m              fcs= 500.00m                m= 500.00m        
     mjsw= 330.00m               pb= 800.00m volts        php= 800.00m volts  
       tt=   0.    secs         cjo=   0.    f/area       cjp=   0.    f/pj   

   4*** temperature effect parameters ***
     tlev=   0.               tlevc=   0.                 tcv=   0.    v/deg k
      trs=   0.    /deg         cta=   0.    /deg         ctp=   0.    /deg   
      xti=   3.00            xtitun=   3.00               keg=   1.00         
       eg=   1.11  ev          gap1= 702.00u  ev/deg     gap2=   1.11k  deg   
     ttt1=   0.    /deg        ttt2=   0.    /deg2        tm1=   0.    /deg   
      tm2=   0.    /deg2        tpb=   0.    v/deg k     tphp=   0.    v/deg k
     tref=  25.00   deg c 

   5*** noise parameters ***
       kf=   0.                  af=   1.00         

   ***  level   1  model parameters  ***

    level=   1.00                is=   1.00u amps         jsw=   0.    amps   
        n=   1.50               nbv=   1.50                ik=   0.    amp    
     area=   1.00                pj=   0.                 ikr=   0.    amp    
    expli=   0.    amps      explir=   0.    amps        jtun=   0.    amps   
   jtunsw=   0.    amps        ntun=  30.00         
  
 ********************************************************
 *** common model parameters model name:  27:diode1  ****
 ********************************************************

     names  values   units     names  values   units     names  values   units
     -----  ------   -----     -----  ------   -----     -----  ------   -----

   1*** dc breakdown parameters ***
       vb=   0.    volts        ibv=   1.00m amps   

   2*** parasitic resistance parameters ***
       rs=   0.    ohms   

   3*** capacitance parameters ***
       fc= 500.00m              fcs= 500.00m                m= 500.00m        
     mjsw= 330.00m               pb= 800.00m volts        php= 800.00m volts  
       tt=   0.    secs         cjo=   0.    f/area       cjp=   0.    f/pj   

   4*** temperature effect parameters ***
     tlev=   0.               tlevc=   0.                 tcv=   0.    v/deg k
      trs=   0.    /deg         cta=   0.    /deg         ctp=   0.    /deg   
      xti=   3.00            xtitun=   3.00               keg=   1.00         
       eg=   1.11  ev          gap1= 702.00u  ev/deg     gap2=   1.11k  deg   
     ttt1=   0.    /deg        ttt2=   0.    /deg2        tm1=   0.    /deg   
      tm2=   0.    /deg2        tpb=   0.    v/deg k     tphp=   0.    v/deg k
     tref=  25.00   deg c 

   5*** noise parameters ***
       kf=   0.                  af=   1.00         

   ***  level   1  model parameters  ***

    level=   1.00                is=   1.00u amps         jsw=   0.    amps   
        n=   1.50               nbv=   1.50                ik=   0.    amp    
     area=   1.00                pj=   0.                 ikr=   0.    amp    
    expli=   0.    amps      explir=   0.    amps        jtun=   0.    amps   
   jtunsw=   0.    amps        ntun=  30.00         
  
 ********************************************************
 *** common model parameters model name:  28:diode1  ****
 ********************************************************

     names  values   units     names  values   units     names  values   units
     -----  ------   -----     -----  ------   -----     -----  ------   -----

   1*** dc breakdown parameters ***
       vb=   0.    volts        ibv=   1.00m amps   

   2*** parasitic resistance parameters ***
       rs=   0.    ohms   

   3*** capacitance parameters ***
       fc= 500.00m              fcs= 500.00m                m= 500.00m        
     mjsw= 330.00m               pb= 800.00m volts        php= 800.00m volts  
       tt=   0.    secs         cjo=   0.    f/area       cjp=   0.    f/pj   

   4*** temperature effect parameters ***
     tlev=   0.               tlevc=   0.                 tcv=   0.    v/deg k
      trs=   0.    /deg         cta=   0.    /deg         ctp=   0.    /deg   
      xti=   3.00            xtitun=   3.00               keg=   1.00         
       eg=   1.11  ev          gap1= 702.00u  ev/deg     gap2=   1.11k  deg   
     ttt1=   0.    /deg        ttt2=   0.    /deg2        tm1=   0.    /deg   
      tm2=   0.    /deg2        tpb=   0.    v/deg k     tphp=   0.    v/deg k
     tref=  25.00   deg c 

   5*** noise parameters ***
       kf=   0.                  af=   1.00         

   ***  level   1  model parameters  ***

    level=   1.00                is=   1.00u amps         jsw=   0.    amps   
        n=   1.50               nbv=   1.50                ik=   0.    amp    
     area=   1.00                pj=   0.                 ikr=   0.    amp    
    expli=   0.    amps      explir=   0.    amps        jtun=   0.    amps   
   jtunsw=   0.    amps        ntun=  30.00         
  
 ********************************************************
 *** common model parameters model name:  29:diode1  ****
 ********************************************************

     names  values   units     names  values   units     names  values   units
     -----  ------   -----     -----  ------   -----     -----  ------   -----

   1*** dc breakdown parameters ***
       vb=   0.    volts        ibv=   1.00m amps   

   2*** parasitic resistance parameters ***
       rs=   0.    ohms   

   3*** capacitance parameters ***
       fc= 500.00m              fcs= 500.00m                m= 500.00m        
     mjsw= 330.00m               pb= 800.00m volts        php= 800.00m volts  
       tt=   0.    secs         cjo=   0.    f/area       cjp=   0.    f/pj   

   4*** temperature effect parameters ***
     tlev=   0.               tlevc=   0.                 tcv=   0.    v/deg k
      trs=   0.    /deg         cta=   0.    /deg         ctp=   0.    /deg   
      xti=   3.00            xtitun=   3.00               keg=   1.00         
       eg=   1.11  ev          gap1= 702.00u  ev/deg     gap2=   1.11k  deg   
     ttt1=   0.    /deg        ttt2=   0.    /deg2        tm1=   0.    /deg   
      tm2=   0.    /deg2        tpb=   0.    v/deg k     tphp=   0.    v/deg k
     tref=  25.00   deg c 

   5*** noise parameters ***
       kf=   0.                  af=   1.00         

   ***  level   1  model parameters  ***

    level=   1.00                is=   1.00u amps         jsw=   0.    amps   
        n=   1.50               nbv=   1.50                ik=   0.    amp    
     area=   1.00                pj=   0.                 ikr=   0.    amp    
    expli=   0.    amps      explir=   0.    amps        jtun=   0.    amps   
   jtunsw=   0.    amps        ntun=  30.00         
  
 ********************************************************
 *** common model parameters model name:  30:diode1  ****
 ********************************************************

     names  values   units     names  values   units     names  values   units
     -----  ------   -----     -----  ------   -----     -----  ------   -----

   1*** dc breakdown parameters ***
       vb=   0.    volts        ibv=   1.00m amps   

   2*** parasitic resistance parameters ***
       rs=   0.    ohms   

   3*** capacitance parameters ***
       fc= 500.00m              fcs= 500.00m                m= 500.00m        
     mjsw= 330.00m               pb= 800.00m volts        php= 800.00m volts  
       tt=   0.    secs         cjo=   0.    f/area       cjp=   0.    f/pj   

   4*** temperature effect parameters ***
     tlev=   0.               tlevc=   0.                 tcv=   0.    v/deg k
      trs=   0.    /deg         cta=   0.    /deg         ctp=   0.    /deg   
      xti=   3.00            xtitun=   3.00               keg=   1.00         
       eg=   1.11  ev          gap1= 702.00u  ev/deg     gap2=   1.11k  deg   
     ttt1=   0.    /deg        ttt2=   0.    /deg2        tm1=   0.    /deg   
      tm2=   0.    /deg2        tpb=   0.    v/deg k     tphp=   0.    v/deg k
     tref=  25.00   deg c 

   5*** noise parameters ***
       kf=   0.                  af=   1.00         

   ***  level   1  model parameters  ***

    level=   1.00                is=   1.00u amps         jsw=   0.    amps   
        n=   1.50               nbv=   1.50                ik=   0.    amp    
     area=   1.00                pj=   0.                 ikr=   0.    amp    
    expli=   0.    amps      explir=   0.    amps        jtun=   0.    amps   
   jtunsw=   0.    amps        ntun=  30.00         
  
 ********************************************************
 *** common model parameters model name:  31:diode1  ****
 ********************************************************

     names  values   units     names  values   units     names  values   units
     -----  ------   -----     -----  ------   -----     -----  ------   -----

   1*** dc breakdown parameters ***
       vb=   0.    volts        ibv=   1.00m amps   

   2*** parasitic resistance parameters ***
       rs=   0.    ohms   

   3*** capacitance parameters ***
       fc= 500.00m              fcs= 500.00m                m= 500.00m        
     mjsw= 330.00m               pb= 800.00m volts        php= 800.00m volts  
       tt=   0.    secs         cjo=   0.    f/area       cjp=   0.    f/pj   

   4*** temperature effect parameters ***
     tlev=   0.               tlevc=   0.                 tcv=   0.    v/deg k
      trs=   0.    /deg         cta=   0.    /deg         ctp=   0.    /deg   
      xti=   3.00            xtitun=   3.00               keg=   1.00         
       eg=   1.11  ev          gap1= 702.00u  ev/deg     gap2=   1.11k  deg   
     ttt1=   0.    /deg        ttt2=   0.    /deg2        tm1=   0.    /deg   
      tm2=   0.    /deg2        tpb=   0.    v/deg k     tphp=   0.    v/deg k
     tref=  25.00   deg c 

   5*** noise parameters ***
       kf=   0.                  af=   1.00         

   ***  level   1  model parameters  ***

    level=   1.00                is=   1.00u amps         jsw=   0.    amps   
        n=   1.50               nbv=   1.50                ik=   0.    amp    
     area=   1.00                pj=   0.                 ikr=   0.    amp    
    expli=   0.    amps      explir=   0.    amps        jtun=   0.    amps   
   jtunsw=   0.    amps        ntun=  30.00         
  
 ********************************************************
 *** common model parameters model name:  32:diode1  ****
 ********************************************************

     names  values   units     names  values   units     names  values   units
     -----  ------   -----     -----  ------   -----     -----  ------   -----

   1*** dc breakdown parameters ***
       vb=   0.    volts        ibv=   1.00m amps   

   2*** parasitic resistance parameters ***
       rs=   0.    ohms   

   3*** capacitance parameters ***
       fc= 500.00m              fcs= 500.00m                m= 500.00m        
     mjsw= 330.00m               pb= 800.00m volts        php= 800.00m volts  
       tt=   0.    secs         cjo=   0.    f/area       cjp=   0.    f/pj   

   4*** temperature effect parameters ***
     tlev=   0.               tlevc=   0.                 tcv=   0.    v/deg k
      trs=   0.    /deg         cta=   0.    /deg         ctp=   0.    /deg   
      xti=   3.00            xtitun=   3.00               keg=   1.00         
       eg=   1.11  ev          gap1= 702.00u  ev/deg     gap2=   1.11k  deg   
     ttt1=   0.    /deg        ttt2=   0.    /deg2        tm1=   0.    /deg   
      tm2=   0.    /deg2        tpb=   0.    v/deg k     tphp=   0.    v/deg k
     tref=  25.00   deg c 

   5*** noise parameters ***
       kf=   0.                  af=   1.00         

   ***  level   1  model parameters  ***

    level=   1.00                is=   1.00u amps         jsw=   0.    amps   
        n=   1.50               nbv=   1.50                ik=   0.    amp    
     area=   1.00                pj=   0.                 ikr=   0.    amp    
    expli=   0.    amps      explir=   0.    amps        jtun=   0.    amps   
   jtunsw=   0.    amps        ntun=  30.00         
  
 ********************************************************
 *** common model parameters model name:  33:diode1  ****
 ********************************************************

     names  values   units     names  values   units     names  values   units
     -----  ------   -----     -----  ------   -----     -----  ------   -----

   1*** dc breakdown parameters ***
       vb=   0.    volts        ibv=   1.00m amps   

   2*** parasitic resistance parameters ***
       rs=   0.    ohms   

   3*** capacitance parameters ***
       fc= 500.00m              fcs= 500.00m                m= 500.00m        
     mjsw= 330.00m               pb= 800.00m volts        php= 800.00m volts  
       tt=   0.    secs         cjo=   0.    f/area       cjp=   0.    f/pj   

   4*** temperature effect parameters ***
     tlev=   0.               tlevc=   0.                 tcv=   0.    v/deg k
      trs=   0.    /deg         cta=   0.    /deg         ctp=   0.    /deg   
      xti=   3.00            xtitun=   3.00               keg=   1.00         
       eg=   1.11  ev          gap1= 702.00u  ev/deg     gap2=   1.11k  deg   
     ttt1=   0.    /deg        ttt2=   0.    /deg2        tm1=   0.    /deg   
      tm2=   0.    /deg2        tpb=   0.    v/deg k     tphp=   0.    v/deg k
     tref=  25.00   deg c 

   5*** noise parameters ***
       kf=   0.                  af=   1.00         

   ***  level   1  model parameters  ***

    level=   1.00                is=   1.00u amps         jsw=   0.    amps   
        n=   1.50               nbv=   1.50                ik=   0.    amp    
     area=   1.00                pj=   0.                 ikr=   0.    amp    
    expli=   0.    amps      explir=   0.    amps        jtun=   0.    amps   
   jtunsw=   0.    amps        ntun=  30.00         
  
 ********************************************************
 *** common model parameters model name:  34:diode1  ****
 ********************************************************

     names  values   units     names  values   units     names  values   units
     -----  ------   -----     -----  ------   -----     -----  ------   -----

   1*** dc breakdown parameters ***
       vb=   0.    volts        ibv=   1.00m amps   

   2*** parasitic resistance parameters ***
       rs=   0.    ohms   

   3*** capacitance parameters ***
       fc= 500.00m              fcs= 500.00m                m= 500.00m        
     mjsw= 330.00m               pb= 800.00m volts        php= 800.00m volts  
       tt=   0.    secs         cjo=   0.    f/area       cjp=   0.    f/pj   

   4*** temperature effect parameters ***
     tlev=   0.               tlevc=   0.                 tcv=   0.    v/deg k
      trs=   0.    /deg         cta=   0.    /deg         ctp=   0.    /deg   
      xti=   3.00            xtitun=   3.00               keg=   1.00         
       eg=   1.11  ev          gap1= 702.00u  ev/deg     gap2=   1.11k  deg   
     ttt1=   0.    /deg        ttt2=   0.    /deg2        tm1=   0.    /deg   
      tm2=   0.    /deg2        tpb=   0.    v/deg k     tphp=   0.    v/deg k
     tref=  25.00   deg c 

   5*** noise parameters ***
       kf=   0.                  af=   1.00         

   ***  level   1  model parameters  ***

    level=   1.00                is=   1.00u amps         jsw=   0.    amps   
        n=   1.50               nbv=   1.50                ik=   0.    amp    
     area=   1.00                pj=   0.                 ikr=   0.    amp    
    expli=   0.    amps      explir=   0.    amps        jtun=   0.    amps   
   jtunsw=   0.    amps        ntun=  30.00         
  
 ********************************************************
 *** common model parameters model name:  35:diode1  ****
 ********************************************************

     names  values   units     names  values   units     names  values   units
     -----  ------   -----     -----  ------   -----     -----  ------   -----

   1*** dc breakdown parameters ***
       vb=   0.    volts        ibv=   1.00m amps   

   2*** parasitic resistance parameters ***
       rs=   0.    ohms   

   3*** capacitance parameters ***
       fc= 500.00m              fcs= 500.00m                m= 500.00m        
     mjsw= 330.00m               pb= 800.00m volts        php= 800.00m volts  
       tt=   0.    secs         cjo=   0.    f/area       cjp=   0.    f/pj   

   4*** temperature effect parameters ***
     tlev=   0.               tlevc=   0.                 tcv=   0.    v/deg k
      trs=   0.    /deg         cta=   0.    /deg         ctp=   0.    /deg   
      xti=   3.00            xtitun=   3.00               keg=   1.00         
       eg=   1.11  ev          gap1= 702.00u  ev/deg     gap2=   1.11k  deg   
     ttt1=   0.    /deg        ttt2=   0.    /deg2        tm1=   0.    /deg   
      tm2=   0.    /deg2        tpb=   0.    v/deg k     tphp=   0.    v/deg k
     tref=  25.00   deg c 

   5*** noise parameters ***
       kf=   0.                  af=   1.00         

   ***  level   1  model parameters  ***

    level=   1.00                is=   1.00u amps         jsw=   0.    amps   
        n=   1.50               nbv=   1.50                ik=   0.    amp    
     area=   1.00                pj=   0.                 ikr=   0.    amp    
    expli=   0.    amps      explir=   0.    amps        jtun=   0.    amps   
   jtunsw=   0.    amps        ntun=  30.00         
  
 ********************************************************
 *** common model parameters model name:  36:diode1  ****
 ********************************************************

     names  values   units     names  values   units     names  values   units
     -----  ------   -----     -----  ------   -----     -----  ------   -----

   1*** dc breakdown parameters ***
       vb=   0.    volts        ibv=   1.00m amps   

   2*** parasitic resistance parameters ***
       rs=   0.    ohms   

   3*** capacitance parameters ***
       fc= 500.00m              fcs= 500.00m                m= 500.00m        
     mjsw= 330.00m               pb= 800.00m volts        php= 800.00m volts  
       tt=   0.    secs         cjo=   0.    f/area       cjp=   0.    f/pj   

   4*** temperature effect parameters ***
     tlev=   0.               tlevc=   0.                 tcv=   0.    v/deg k
      trs=   0.    /deg         cta=   0.    /deg         ctp=   0.    /deg   
      xti=   3.00            xtitun=   3.00               keg=   1.00         
       eg=   1.11  ev          gap1= 702.00u  ev/deg     gap2=   1.11k  deg   
     ttt1=   0.    /deg        ttt2=   0.    /deg2        tm1=   0.    /deg   
      tm2=   0.    /deg2        tpb=   0.    v/deg k     tphp=   0.    v/deg k
     tref=  25.00   deg c 

   5*** noise parameters ***
       kf=   0.                  af=   1.00         

   ***  level   1  model parameters  ***

    level=   1.00                is=   1.00u amps         jsw=   0.    amps   
        n=   1.50               nbv=   1.50                ik=   0.    amp    
     area=   1.00                pj=   0.                 ikr=   0.    amp    
    expli=   0.    amps      explir=   0.    amps        jtun=   0.    amps   
[...]
   57.84500      57.8450     -73.2345   
   57.85000      57.8500     -73.2533   
   57.85500      57.8550     -73.2721   
   57.86000      57.8600     -73.2909   
   57.86500      57.8650     -73.3097   
   57.87000      57.8700     -73.3286   
   57.87500      57.8750     -73.3474   
   57.88000      57.8800     -73.3662   
   57.88500      57.8850     -73.3850   
   57.89000      57.8900     -73.4038   
   57.89500      57.8950     -73.4227   
   57.90000      57.9000     -73.4415   
   57.90500      57.9050     -73.4603   
   57.91000      57.9100     -73.4791   
   57.91500      57.9150     -73.4979   
   57.92000      57.9200     -73.5168   
   57.92500      57.9250     -73.5356   
   57.93000      57.9300     -73.5544   
   57.93500      57.9350     -73.5732   
   57.94000      57.9400     -73.5921   
   57.94500      57.9450     -73.6109   
   57.95000      57.9500     -73.6297   
   57.95500      57.9550     -73.6485   
   57.96000      57.9600     -73.6674   
   57.96500      57.9650     -73.6862   
   57.97000      57.9700     -73.7050   
   57.97500      57.9750     -73.7238   
   57.98000      57.9800     -73.7427   
   57.98500      57.9850     -73.7615   
   57.99000      57.9900     -73.7803   
   57.99500      57.9950     -73.7992   
   58.00000      58.0000     -73.8180   
   58.00500      58.0050     -73.8368   
   58.01000      58.0100     -73.8556   
   58.01500      58.0150     -73.8745   
   58.02000      58.0200     -73.8933   
   58.02500      58.0250     -73.9121   
   58.03000      58.0300     -73.9310   
   58.03500      58.0350     -73.9498   
   58.04000      58.0400     -73.9686   
   58.04500      58.0450     -73.9875   
   58.05000      58.0500     -74.0063   
   58.05500      58.0550     -74.0251   
   58.06000      58.0600     -74.0440   
   58.06500      58.0650     -74.0628   
   58.07000      58.0700     -74.0817   
   58.07500      58.0750     -74.1005   
   58.08000      58.0800     -74.1193   
   58.08500      58.0850     -74.1382   
   58.09000      58.0900     -74.1570   
   58.09500      58.0950     -74.1758   
   58.10000      58.1000     -74.1947   
   58.10500      58.1050     -74.2135   
   58.11000      58.1100     -74.2324   
   58.11500      58.1150     -74.2512   
   58.12000      58.1200     -74.2700   
   58.12500      58.1250     -74.2889   
   58.13000      58.1300     -74.3077   
   58.13500      58.1350     -74.3266   
   58.14000      58.1400     -74.3454   
   58.14500      58.1450     -74.3643   
   58.15000      58.1500     -74.3831   
   58.15500      58.1550     -74.4019   
   58.16000      58.1600     -74.4208   
   58.16500      58.1650     -74.4396   
   58.17000      58.1700     -74.4585   
   58.17500      58.1750     -74.4773   
   58.18000      58.1800     -74.4962   
   58.18500      58.1850     -74.5150   
   58.19000      58.1900     -74.5339   
   58.19500      58.1950     -74.5527   
   58.20000      58.2000     -74.5716   
   58.20500      58.2050     -74.5904   
   58.21000      58.2100     -74.6093   
   58.21500      58.2150     -74.6281   
   58.22000      58.2200     -74.6470   
   58.22500      58.2250     -74.6658   
   58.23000      58.2300     -74.6847   
   58.23500      58.2350     -74.7035   
   58.24000      58.2400     -74.7224   
   58.24500      58.2450     -74.7412   
   58.25000      58.2500     -74.7601   
   58.25500      58.2550     -74.7789   
   58.26000      58.2600     -74.7978   
   58.26500      58.2650     -74.8166   
   58.27000      58.2700     -74.8355   
   58.27500      58.2750     -74.8544   
   58.28000      58.2800     -74.8732   
   58.28500      58.2850     -74.8921   
   58.29000      58.2900     -74.9109   
   58.29500      58.2950     -74.9298   
   58.30000      58.3000     -74.9486   
   58.30500      58.3050     -74.9675   
   58.31000      58.3100     -74.9864   
   58.31500      58.3150     -75.0052   
   58.32000      58.3200     -75.0241   
   58.32500      58.3250     -75.0429   
   58.33000      58.3300     -75.0618   
   58.33500      58.3350     -75.0807   
   58.34000      58.3400     -75.0995   
   58.34500      58.3450     -75.1184   
   58.35000      58.3500     -75.1372   
   58.35500      58.3550     -75.1561   
   58.36000      58.3600     -75.1750   
   58.36500      58.3650     -75.1938   
   58.37000      58.3700     -75.2127   
   58.37500      58.3750     -75.2316   
   58.38000      58.3800     -75.2504   
   58.38500      58.3850     -75.2693   
   58.39000      58.3900     -75.2882   
   58.39500      58.3950     -75.3070   
   58.40000      58.4000     -75.3259   
   58.40500      58.4050     -75.3448   
   58.41000      58.4100     -75.3636   
   58.41500      58.4150     -75.3825   
   58.42000      58.4200     -75.4014   
   58.42500      58.4250     -75.4202   
   58.43000      58.4300     -75.4391   
   58.43500      58.4350     -75.4580   
   58.44000      58.4400     -75.4768   
   58.44500      58.4450     -75.4957   
   58.45000      58.4500     -75.5146   
   58.45500      58.4550     -75.5335   
   58.46000      58.4600     -75.5523   
   58.46500      58.4650     -75.5712   
   58.47000      58.4700     -75.5901   
   58.47500      58.4750     -75.6090   
   58.48000      58.4800     -75.6278   
   58.48500      58.4850     -75.6467   
   58.49000      58.4900     -75.6656   
   58.49500      58.4950     -75.6845   
   58.50000      58.5000     -75.7033   
   58.50500      58.5050     -75.7222   
   58.51000      58.5100     -75.7411   
   58.51500      58.5150     -75.7600   
   58.52000      58.5200     -75.7788   
   58.52500      58.5250     -75.7977   
   58.53000      58.5300     -75.8166   
   58.53500      58.5350     -75.8355   
   58.54000      58.5400     -75.8544   
   58.54500      58.5450     -75.8732   
   58.55000      58.5500     -75.8921   
   58.55500      58.5550     -75.9110   
   58.56000      58.5600     -75.9299   
   58.56500      58.5650     -75.9488   
   58.57000      58.5700     -75.9676   
   58.57500      58.5750     -75.9865   
   58.58000      58.5800     -76.0054   
   58.58500      58.5850     -76.0243   
   58.59000      58.5900     -76.0432   
   58.59500      58.5950     -76.0621   
   58.60000      58.6000     -76.0809   
   58.60500      58.6050     -76.0998   
   58.61000      58.6100     -76.1187   
   58.61500      58.6150     -76.1376   
   58.62000      58.6200     -76.1565   
   58.62500      58.6250     -76.1754   
   58.63000      58.6300     -76.1943   
   58.63500      58.6350     -76.2132   
   58.64000      58.6400     -76.2320   
   58.64500      58.6450     -76.2509   
   58.65000      58.6500     -76.2698   
   58.65500      58.6550     -76.2887   
   58.66000      58.6600     -76.3076   
   58.66500      58.6650     -76.3265   
   58.67000      58.6700     -76.3454   
   58.67500      58.6750     -76.3643   
   58.68000      58.6800     -76.3832   
   58.68500      58.6850     -76.4021   
   58.69000      58.6900     -76.4210   
   58.69500      58.6950     -76.4398   
   58.70000      58.7000     -76.4587   
   58.70500      58.7050     -76.4776   
   58.71000      58.7100     -76.4965   
   58.71500      58.7150     -76.5154   
   58.72000      58.7200     -76.5343   
   58.72500      58.7250     -76.5532   
   58.73000      58.7300     -76.5721   
   58.73500      58.7350     -76.5910   
   58.74000      58.7400     -76.6099   
   58.74500      58.7450     -76.6288   
   58.75000      58.7500     -76.6477   
   58.75500      58.7550     -76.6666   
   58.76000      58.7600     -76.6855   
   58.76500      58.7650     -76.7044   
   58.77000      58.7700     -76.7233   
   58.77500      58.7750     -76.7422   
   58.78000      58.7800     -76.7611   
   58.78500      58.7850     -76.7800   
   58.79000      58.7900     -76.7989   
   58.79500      58.7950     -76.8178   
   58.80000      58.8000     -76.8367   
   58.80500      58.8050     -76.8556   
   58.81000      58.8100     -76.8745   
   58.81500      58.8150     -76.8934   
   58.82000      58.8200     -76.9123   
   58.82500      58.8250     -76.9312   
   58.83000      58.8300     -76.9501   
   58.83500      58.8350     -76.9691   
   58.84000      58.8400     -76.9880   
   58.84500      58.8450     -77.0069   
   58.85000      58.8500     -77.0258   
   58.85500      58.8550     -77.0447   
   58.86000      58.8600     -77.0636   
   58.86500      58.8650     -77.0825   
   58.87000      58.8700     -77.1014   
   58.87500      58.8750     -77.1203   
   58.88000      58.8800     -77.1392   
   58.88500      58.8850     -77.1581   
   58.89000      58.8900     -77.1770   
   58.89500      58.8950     -77.1960   
   58.90000      58.9000     -77.2149   
   58.90500      58.9050     -77.2338   
   58.91000      58.9100     -77.2527   
   58.91500      58.9150     -77.2716   
   58.92000      58.9200     -77.2905   
   58.92500      58.9250     -77.3094   
   58.93000      58.9300     -77.3283   
   58.93500      58.9350     -77.3473   
   58.94000      58.9400     -77.3662   
   58.94500      58.9450     -77.3851   
   58.95000      58.9500     -77.4040   
   58.95500      58.9550     -77.4229   
   58.96000      58.9600     -77.4418   
   58.96500      58.9650     -77.4608   
   58.97000      58.9700     -77.4797   
   58.97500      58.9750     -77.4986   
   58.98000      58.9800     -77.5175   
   58.98500      58.9850     -77.5364   
   58.99000      58.9900     -77.5554   
   58.99500      58.9950     -77.5743   
   59.00000      59.0000     -77.5932   
   59.00500      59.0050     -77.6121   
   59.01000      59.0100     -77.6310   
   59.01500      59.0150     -77.6500   
   59.02000      59.0200     -77.6689   
   59.02500      59.0250     -77.6878   
   59.03000      59.0300     -77.7067   
   59.03500      59.0350     -77.7257   
   59.04000      59.0400     -77.7446   
   59.04500      59.0450     -77.7635   
   59.05000      59.0500     -77.7824   
   59.05500      59.0550     -77.8014   
   59.06000      59.0600     -77.8203   
   59.06500      59.0650     -77.8392   
   59.07000      59.0700     -77.8581   
   59.07500      59.0750     -77.8771   
   59.08000      59.0800     -77.8960   
   59.08500      59.0850     -77.9149   
   59.09000      59.0900     -77.9338   
   59.09500      59.0950     -77.9528   
   59.10000      59.1000     -77.9717   
   59.10500      59.1050     -77.9906   
   59.11000      59.1100     -78.0096   
   59.11500      59.1150     -78.0285   
   59.12000      59.1200     -78.0474   
   59.12500      59.1250     -78.0664   
   59.13000      59.1300     -78.0853   
   59.13500      59.1350     -78.1042   
   59.14000      59.1400     -78.1231   
   59.14500      59.1450     -78.1421   
   59.15000      59.1500     -78.1610   
   59.15500      59.1550     -78.1799   
   59.16000      59.1600     -78.1989   
   59.16500      59.1650     -78.2178   
   59.17000      59.1700     -78.2368   
   59.17500      59.1750     -78.2557   
   59.18000      59.1800     -78.2746   
   59.18500      59.1850     -78.2936   
   59.19000      59.1900     -78.3125   
   59.19500      59.1950     -78.3314   
   59.20000      59.2000     -78.3504   
   59.20500      59.2050     -78.3693   
   59.21000      59.2100     -78.3882   
   59.21500      59.2150     -78.4072   
   59.22000      59.2200     -78.4261   
   59.22500      59.2250     -78.4451   
   59.23000      59.2300     -78.4640   
   59.23500      59.2350     -78.4829   
   59.24000      59.2400     -78.5019   
   59.24500      59.2450     -78.5208   
   59.25000      59.2500     -78.5398   
   59.25500      59.2550     -78.5587   
   59.26000      59.2600     -78.5777   
   59.26500      59.2650     -78.5966   
   59.27000      59.2700     -78.6155   
   59.27500      59.2750     -78.6345   
   59.28000      59.2800     -78.6534   
   59.28500      59.2850     -78.6724   
   59.29000      59.2900     -78.6913   
   59.29500      59.2950     -78.7103   
   59.30000      59.3000     -78.7292   
   59.30500      59.3050     -78.7482   
   59.31000      59.3100     -78.7671   
   59.31500      59.3150     -78.7861   
   59.32000      59.3200     -78.8050   
   59.32500      59.3250     -78.8240   
   59.33000      59.3300     -78.8429   
   59.33500      59.3350     -78.8619   
   59.34000      59.3400     -78.8808   
   59.34500      59.3450     -78.8998   
   59.35000      59.3500     -78.9187   
   59.35500      59.3550     -78.9377   
   59.36000      59.3600     -78.9566   
   59.36500      59.3650     -78.9756   
   59.37000      59.3700     -78.9945   
   59.37500      59.3750     -79.0135   
   59.38000      59.3800     -79.0324   
   59.38500      59.3850     -79.0514   
   59.39000      59.3900     -79.0703   
   59.39500      59.3950     -79.0893   
   59.40000      59.4000     -79.1082   
   59.40500      59.4050     -79.1272   
   59.41000      59.4100     -79.1461   
   59.41500      59.4150     -79.1651   
   59.42000      59.4200     -79.1841   
   59.42500      59.4250     -79.2030   
   59.43000      59.4300     -79.2220   
   59.43500      59.4350     -79.2409   
   59.44000      59.4400     -79.2599   
   59.44500      59.4450     -79.2788   
   59.45000      59.4500     -79.2978   
   59.45500      59.4550     -79.3168   
   59.46000      59.4600     -79.3357   
   59.46500      59.4650     -79.3547   
   59.47000      59.4700     -79.3736   
   59.47500      59.4750     -79.3926   
   59.48000      59.4800     -79.4116   
   59.48500      59.4850     -79.4305   
   59.49000      59.4900     -79.4495   
   59.49500      59.4950     -79.4685   
   59.50000      59.5000     -79.4874   
   59.50500      59.5050     -79.5064   
   59.51000      59.5100     -79.5253   
   59.51500      59.5150     -79.5443   
   59.52000      59.5200     -79.5633   
   59.52500      59.5250     -79.5822   
   59.53000      59.5300     -79.6012   
   59.53500      59.5350     -79.6202   
   59.54000      59.5400     -79.6391   
   59.54500      59.5450     -79.6581   
   59.55000      59.5500     -79.6771   
   59.55500      59.5550     -79.6960   
   59.56000      59.5600     -79.7150   
   59.56500      59.5650     -79.7340   
   59.57000      59.5700     -79.7529   
   59.57500      59.5750     -79.7719   
   59.58000      59.5800     -79.7909   
   59.58500      59.5850     -79.8099   
   59.59000      59.5900     -79.8288   
   59.59500      59.5950     -79.8478   
   59.60000      59.6000     -79.8668   
   59.60500      59.6050     -79.8857   
   59.61000      59.6100     -79.9047   
   59.61500      59.6150     -79.9237   
   59.62000      59.6200     -79.9427   
   59.62500      59.6250     -79.9616   
   59.63000      59.6300     -79.9806   
   59.63500      59.6350     -79.9996   
   59.64000      59.6400     -80.0186   
   59.64500      59.6450     -80.0375   
   59.65000      59.6500     -80.0565   
   59.65500      59.6550     -80.0755   
   59.66000      59.6600     -80.0945   
   59.66500      59.6650     -80.1134   
   59.67000      59.6700     -80.1324   
   59.67500      59.6750     -80.1514   
   59.68000      59.6800     -80.1704   
   59.68500      59.6850     -80.1894   
   59.69000      59.6900     -80.2083   
   59.69500      59.6950     -80.2273   
   59.70000      59.7000     -80.2463   
   59.70500      59.7050     -80.2653   
   59.71000      59.7100     -80.2843   
   59.71500      59.7150     -80.3032   
   59.72000      59.7200     -80.3222   
   59.72500      59.7250     -80.3412   
   59.73000      59.7300     -80.3602   
   59.73500      59.7350     -80.3792   
   59.74000      59.7400     -80.3981   
   59.74500      59.7450     -80.4171   
   59.75000      59.7500     -80.4361   
   59.75500      59.7550     -80.4551   
   59.76000      59.7600     -80.4741   
   59.76500      59.7650     -80.4931   
   59.77000      59.7700     -80.5121   
   59.77500      59.7750     -80.5310   
   59.78000      59.7800     -80.5500   
   59.78500      59.7850     -80.5690   
   59.79000      59.7900     -80.5880   
   59.79500      59.7950     -80.6070   
   59.80000      59.8000     -80.6260   
   59.80500      59.8050     -80.6450   
   59.81000      59.8100     -80.6640   
   59.81500      59.8150     -80.6829   
   59.82000      59.8200     -80.7019   
   59.82500      59.8250     -80.7209   
   59.83000      59.8300     -80.7399   
   59.83500      59.8350     -80.7589   
   59.84000      59.8400     -80.7779   
   59.84500      59.8450     -80.7969   
   59.85000      59.8500     -80.8159   
   59.85500      59.8550     -80.8349   
   59.86000      59.8600     -80.8539   
   59.86500      59.8650     -80.8729   
   59.87000      59.8700     -80.8919   
   59.87500      59.8750     -80.9108   
   59.88000      59.8800     -80.9298   
   59.88500      59.8850     -80.9488   
   59.89000      59.8900     -80.9678   
   59.89500      59.8950     -80.9868   
   59.90000      59.9000     -81.0058   
   59.90500      59.9050     -81.0248   
   59.91000      59.9100     -81.0438   
   59.91500      59.9150     -81.0628   
   59.92000      59.9200     -81.0818   
   59.92500      59.9250     -81.1008   
   59.93000      59.9300     -81.1198   
   59.93500      59.9350     -81.1388   
   59.94000      59.9400     -81.1578   
   59.94500      59.9450     -81.1768   
   59.95000      59.9500     -81.1958   
   59.95500      59.9550     -81.2148   
   59.96000      59.9600     -81.2338   
   59.96500      59.9650     -81.2528   
   59.97000      59.9700     -81.2718   
   59.97500      59.9750     -81.2908   
   59.98000      59.9800     -81.3098   
   59.98500      59.9850     -81.3288   
   59.99000      59.9900     -81.3478   
   59.99500      59.9950     -81.3668   
   60.00000      60.0000     -81.3858   
y

          ***** job concluded
1****** HSPICE -- C-2009.03-SP1 32-BIT (May 25 2009) winnt ******               
 ******  
 ** 60 cascaded, 2 paralleled cells

  ******  job statistics summary tnom=  25.000 temp=  25.000 *****

  ******  HSPICE Threads Information  ******
  Command Line Threads Count                  :     1
  Available CPU Count                         :     8
  Actual Model Evaluation(Load) Threads Count :     1
  Actual Solver Threads Count                 :     1


  ******  Circuit Statistics  ******
  # nodes       =     240 # elements   =     487
  # resistors   =     240 # capacitors =       0 # inductors   =       0
  # mutual_inds =       0 # vccs       =       0 # vcvs        =       0
  # cccs        =       0 # ccvs       =       0 # volt_srcs   =       1
  # curr_srcs   =     120 # diodes     =     126 # bjts        =       0
  # jfets       =       0 # mosfets    =       0 # U elements  =       0
  # T elements  =       0 # W elements =       0 # B elements  =       0
  # S elements  =       0 # P elements =       0 # va device   =       0


  ******  Runtime Statistics (seconds)  ******

  analysis           time    # points   tot. iter  conv.iter
  op point           0.00           1           0
  dc sweep           6.49       12001       24137
  readin             0.08
  errchk             0.02
  setup              0.02
  output             0.03


           total memory used          727  kbytes
           total cpu time            6.67 seconds
           total elapsed time        6.72 seconds
           job started at     14:11:04 06/23/2015
           job ended   at     14:11:11 06/23/2015


 Init: hspice initialization file: C:\synopsys\Hspice_C-2009.03-SP1\hspice.ini
  lic: Release hspice token(s) 
