 ****** HSPICE -- C-2009.03-SP1 32-BIT (May 25 2009) winnt ******               
  Copyright (C) 2009 Synopsys, Inc. All Rights Reserved.                        
  Unpublished-rights reserved under US copyright laws.
  This program is protected by law and is subject to the 
  terms and conditions of the license agreement from Synopsys.
  Use of this program is your acceptance to be bound by the 
  license agreement. HSPICE is the trademark of Synopsys, Inc.
  Input File: C:\Users\Administrator\Desktop\MultiLevel\ncModel.sp              
  lic:  
  lic: FLEXlm: v8.5b 
  lic: USER:   Administrator        HOSTNAME: WIN-HBGPFB5Q4D3 
  lic: HOSTID: "002268384615 005056c00001 005056c00008" PID:      6104 
  lic: Using FLEXlm license file: 
  lic: C:\synopsys\hspice_2009-03.lic 
  lic: Checkout 1 hspice 
  lic: License/Maintenance for hspice will expire on 31-dec-2020/2007.9 
  lic: NODE LOCKED license on hostid "002268384615 005056c00001 005056c00008" 
  lic:   
 Init: read install configuration file: C:\synopsys\Hspice_C-2009.03-SP1\meta.cfg
 Init: hspice initialization file: C:\synopsys\Hspice_C-2009.03-SP1\hspice.ini




1****** HSPICE -- C-2009.03-SP1 32-BIT (May 25 2009) winnt ******               
 ******  
 ** super cell 1 max current

  ******  diode model parameters tnom=  25.000 temp=  25.000 *****
 ********************************************************
 *** common model parameters model name:   0:diode1  ****
 ********************************************************

     names  values   units     names  values   units     names  values   units
     -----  ------   -----     -----  ------   -----     -----  ------   -----

   1*** dc breakdown parameters ***
       vb=   0.    volts        ibv=   1.00m amps   

   2*** parasitic resistance parameters ***
       rs=   0.    ohms   

   3*** capacitance parameters ***
       fc= 500.00m              fcs= 500.00m                m= 500.00m        
     mjsw= 330.00m               pb= 800.00m volts        php= 800.00m volts  
       tt=   0.    secs         cjo=   0.    f/area       cjp=   0.    f/pj   

   4*** temperature effect parameters ***
     tlev=   0.               tlevc=   0.                 tcv=   0.    v/deg k
      trs=   0.    /deg         cta=   0.    /deg         ctp=   0.    /deg   
      xti=   3.00            xtitun=   3.00               keg=   1.00         
       eg=   1.11  ev          gap1= 702.00u  ev/deg     gap2=   1.11k  deg   
     ttt1=   0.    /deg        ttt2=   0.    /deg2        tm1=   0.    /deg   
      tm2=   0.    /deg2        tpb=   0.    v/deg k     tphp=   0.    v/deg k
     tref=  25.00   deg c 

   5*** noise parameters ***
       kf=   0.                  af=   1.00         

   ***  level   1  model parameters  ***

    level=   1.00                is= 560.12n amps         jsw=   0.    amps   
        n=  25.21               nbv=  25.21                ik=   0.    amp    
     area=   1.00                pj=   0.                 ikr=   0.    amp    
    expli=   0.    amps      explir=   0.    amps        jtun=   0.    amps   
   jtunsw=   0.    amps        ntun=  30.00         
  
 ********************************************************
 *** common model parameters model name:   0:diode2  ****
 ********************************************************

     names  values   units     names  values   units     names  values   units
     -----  ------   -----     -----  ------   -----     -----  ------   -----

   1*** dc breakdown parameters ***
       vb=   0.    volts        ibv=   1.00m amps   

   2*** parasitic resistance parameters ***
       rs=   0.    ohms   

   3*** capacitance parameters ***
       fc= 500.00m              fcs= 500.00m                m= 500.00m        
     mjsw= 330.00m               pb= 800.00m volts        php= 800.00m volts  
       tt=   0.    secs         cjo=   0.    f/area       cjp=   0.    f/pj   

   4*** temperature effect parameters ***
     tlev=   0.               tlevc=   0.                 tcv=   0.    v/deg k
      trs=   0.    /deg         cta=   0.    /deg         ctp=   0.    /deg   
      xti=   3.00            xtitun=   3.00               keg=   1.00         
       eg=   1.11  ev          gap1= 702.00u  ev/deg     gap2=   1.11k  deg   
     ttt1=   0.    /deg        ttt2=   0.    /deg2        tm1=   0.    /deg   
      tm2=   0.    /deg2        tpb=   0.    v/deg k     tphp=   0.    v/deg k
     tref=  25.00   deg c 

   5*** noise parameters ***
       kf=   0.                  af=   1.00         

   ***  level   1  model parameters  ***

    level=   1.00                is=   5.60u amps         jsw=   0.    amps   
        n= 840.19m              nbv= 840.19m               ik=   0.    amp    
     area=   1.00                pj=   0.                 ikr=   0.    amp    
    expli=   0.    amps      explir=   0.    amps        jtun=   0.    amps   
   jtunsw=   0.    amps        ntun=  30.00         
  
 ********************************************************
 *** common model parameters model name:   0:diode3  ****
 ********************************************************

     names  values   units     names  values   units     names  values   units
     -----  ------   -----     -----  ------   -----     -----  ------   -----

   1*** dc breakdown parameters ***
       vb=   0.    volts        ibv=   1.00m amps   

   2*** parasitic resistance parameters ***
       rs=   0.    ohms   

   3*** capacitance parameters ***
       fc= 500.00m              fcs= 500.00m                m= 500.00m        
     mjsw= 330.00m               pb= 800.00m volts        php= 800.00m volts  
       tt=   0.    secs         cjo=   0.    f/area       cjp=   0.    f/pj   

   4*** temperature effect parameters ***
     tlev=   0.               tlevc=   0.                 tcv=   0.    v/deg k
      trs=   0.    /deg         cta=   0.    /deg         ctp=   0.    /deg   
      xti=   3.00            xtitun=   3.00               keg=   1.00         
       eg=   1.11  ev          gap1= 702.00u  ev/deg     gap2=   1.11k  deg   
     ttt1=   0.    /deg        ttt2=   0.    /deg2        tm1=   0.    /deg   
      tm2=   0.    /deg2        tpb=   0.    v/deg k     tphp=   0.    v/deg k
     tref=  25.00   deg c 

   5*** noise parameters ***
       kf=   0.                  af=   1.00         

   ***  level   1  model parameters  ***

    level=   1.00                is= 629.00n amps         jsw=   0.    amps   
        n=  28.31               nbv=  28.31                ik=   0.    amp    
     area=   1.00                pj=   0.                 ikr=   0.    amp    
    expli=   0.    amps      explir=   0.    amps        jtun=   0.    amps   
   jtunsw=   0.    amps        ntun=  30.00         
  
 ********************************************************
 *** common model parameters model name:   0:diode4  ****
 ********************************************************

     names  values   units     names  values   units     names  values   units
     -----  ------   -----     -----  ------   -----     -----  ------   -----

   1*** dc breakdown parameters ***
       vb=   0.    volts        ibv=   1.00m amps   

   2*** parasitic resistance parameters ***
       rs=   0.    ohms   

   3*** capacitance parameters ***
       fc= 500.00m              fcs= 500.00m                m= 500.00m        
     mjsw= 330.00m               pb= 800.00m volts        php= 800.00m volts  
       tt=   0.    secs         cjo=   0.    f/area       cjp=   0.    f/pj   

   4*** temperature effect parameters ***
     tlev=   0.               tlevc=   0.                 tcv=   0.    v/deg k
      trs=   0.    /deg         cta=   0.    /deg         ctp=   0.    /deg   
      xti=   3.00            xtitun=   3.00               keg=   1.00         
       eg=   1.11  ev          gap1= 702.00u  ev/deg     gap2=   1.11k  deg   
     ttt1=   0.    /deg        ttt2=   0.    /deg2        tm1=   0.    /deg   
      tm2=   0.    /deg2        tpb=   0.    v/deg k     tphp=   0.    v/deg k
     tref=  25.00   deg c 

   5*** noise parameters ***
       kf=   0.                  af=   1.00         

   ***  level   1  model parameters  ***

    level=   1.00                is=   6.29u amps         jsw=   0.    amps   
        n= 943.51m              nbv= 943.51m               ik=   0.    amp    
     area=   1.00                pj=   0.                 ikr=   0.    amp    
    expli=   0.    amps      explir=   0.    amps        jtun=   0.    amps   
   jtunsw=   0.    amps        ntun=  30.00         
  
 ********************************************************
 *** common model parameters model name:   0:diode5  ****
 ********************************************************

     names  values   units     names  values   units     names  values   units
     -----  ------   -----     -----  ------   -----     -----  ------   -----

   1*** dc breakdown parameters ***
       vb=   0.    volts        ibv=   1.00m amps   

   2*** parasitic resistance parameters ***
       rs=   0.    ohms   

   3*** capacitance parameters ***
       fc= 500.00m              fcs= 500.00m                m= 500.00m        
     mjsw= 330.00m               pb= 800.00m volts        php= 800.00m volts  
       tt=   0.    secs         cjo=   0.    f/area       cjp=   0.    f/pj   

   4*** temperature effect parameters ***
     tlev=   0.               tlevc=   0.                 tcv=   0.    v/deg k
      trs=   0.    /deg         cta=   0.    /deg         ctp=   0.    /deg   
      xti=   3.00            xtitun=   3.00               keg=   1.00         
       eg=   1.11  ev          gap1= 702.00u  ev/deg     gap2=   1.11k  deg   
     ttt1=   0.    /deg        ttt2=   0.    /deg2        tm1=   0.    /deg   
      tm2=   0.    /deg2        tpb=   0.    v/deg k     tphp=   0.    v/deg k
     tref=  25.00   deg c 

   5*** noise parameters ***
       kf=   0.                  af=   1.00         

   ***  level   1  model parameters  ***

    level=   1.00                is= 810.87n amps         jsw=   0.    amps   
        n=  36.49               nbv=  36.49                ik=   0.    amp    
     area=   1.00                pj=   0.                 ikr=   0.    amp    
    expli=   0.    amps      explir=   0.    amps        jtun=   0.    amps   
   jtunsw=   0.    amps        ntun=  30.00         
  
 ********************************************************
 *** common model parameters model name:   0:diode6  ****
 ********************************************************

     names  values   units     names  values   units     names  values   units
     -----  ------   -----     -----  ------   -----     -----  ------   -----

   1*** dc breakdown parameters ***
       vb=   0.    volts        ibv=   1.00m amps   

   2*** parasitic resistance parameters ***
       rs=   0.    ohms   

   3*** capacitance parameters ***
       fc= 500.00m              fcs= 500.00m                m= 500.00m        
     mjsw= 330.00m               pb= 800.00m volts        php= 800.00m volts  
       tt=   0.    secs         cjo=   0.    f/area       cjp=   0.    f/pj   

   4*** temperature effect parameters ***
     tlev=   0.               tlevc=   0.                 tcv=   0.    v/deg k
      trs=   0.    /deg         cta=   0.    /deg         ctp=   0.    /deg   
      xti=   3.00            xtitun=   3.00               keg=   1.00         
       eg=   1.11  ev          gap1= 702.00u  ev/deg     gap2=   1.11k  deg   
     ttt1=   0.    /deg        ttt2=   0.    /deg2        tm1=   0.    /deg   
      tm2=   0.    /deg2        tpb=   0.    v/deg k     tphp=   0.    v/deg k
     tref=  25.00   deg c 

   5*** noise parameters ***
       kf=   0.                  af=   1.00         

   ***  level   1  model parameters  ***

    level=   1.00                is=   8.11u amps         jsw=   0.    amps   
        n=   1.22               nbv=   1.22                ik=   0.    amp    
     area=   1.00                pj=   0.                 ikr=   0.    amp    
    expli=   0.    amps      explir=   0.    amps        jtun=   0.    amps   
   jtunsw=   0.    amps        ntun=  30.00         
  
 **warning**  attempt to reference undefined node     0:out             
  in the definition of v(out,0)
   branch - output ignored

 
      
 *****************************************************************
 ******  option summary
 ******
 runlvl  = 3         bypass  = 2         
 ******  
 ** super cell 1 max current

  ******  dc transfer curves tnom=  25.000 temp=  25.000 *****
x

        volt    current    
                    vds    
    0.            6.0000   
    5.00000m      6.0000   
   10.00000m      6.0000   
   15.00000m      6.0000   
   20.00000m      6.0000   
   25.00000m      6.0000   
   30.00000m      6.0000   
   35.00000m      6.0000   
   40.00000m      6.0000   
   45.00000m      6.0000   
   50.00000m      6.0000   
   55.00000m      6.0000   
   60.00000m      6.0000   
   65.00000m      6.0000   
   70.00000m      6.0000   
   75.00000m      6.0000   
   80.00000m      6.0000   
   85.00000m      6.0000   
   90.00000m      6.0000   
   95.00000m      6.0000   
  100.00000m      6.0000   
  105.00000m      6.0000   
  110.00000m      6.0000   
  115.00000m      6.0000   
  120.00000m      6.0000   
  125.00000m      6.0000   
  130.00000m      6.0000   
  135.00000m      6.0000   
  140.00000m      6.0000   
  145.00000m      6.0000   
  150.00000m      6.0000   
  155.00000m      6.0000   
  160.00000m      6.0000   
  165.00000m      6.0000   
  170.00000m      6.0000   
  175.00000m      6.0000   
  180.00000m      6.0000   
  185.00000m      6.0000   
  190.00000m      6.0000   
  195.00000m      6.0000   
  200.00000m      6.0000   
  205.00000m      6.0000   
  210.00000m      6.0000   
  215.00000m      6.0000   
  220.00000m      6.0000   
  225.00000m      6.0000   
  230.00000m      6.0000   
  235.00000m      6.0000   
  240.00000m      6.0000   
  245.00000m      6.0000   
  250.00000m      6.0000   
  255.00000m      6.0000   
  260.00000m      6.0000   
  265.00000m      6.0000   
  270.00000m      6.0000   
  275.00000m      6.0000   
  280.00000m      6.0000   
  285.00000m      6.0000   
  290.00000m      6.0000   
  295.00000m      6.0000   
  300.00000m      6.0000   
  305.00000m      6.0000   
  310.00000m      6.0000   
  315.00000m      6.0000   
  320.00000m      6.0000   
  325.00000m      6.0000   
  330.00000m      6.0000   
  335.00000m      6.0000   
  340.00000m      6.0000   
  345.00000m      6.0000   
  350.00000m      6.0000   
  355.00000m      6.0000   
  360.00000m      6.0000   
  365.00000m      6.0000   
  370.00000m      6.0000   
  375.00000m      6.0000   
  380.00000m      6.0000   
  385.00000m      6.0000   
  390.00000m      6.0000   
  395.00000m      6.0000   
  400.00000m      6.0000   
  405.00000m      6.0000   
  410.00000m      6.0000   
  415.00000m      6.0000   
  420.00000m      6.0000   
  425.00000m      6.0000   
  430.00000m      6.0000   
  435.00000m      6.0000   
  440.00000m      6.0000   
  445.00000m      6.0000   
  450.00000m      6.0000   
  455.00000m      6.0000   
  460.00000m      6.0000   
  465.00000m      6.0000   
  470.00000m      6.0000   
  475.00000m      6.0000   
  480.00000m      6.0000   
  485.00000m      6.0000   
  490.00000m      6.0000   
  495.00000m      6.0000   
  500.00000m      6.0000   
  505.00000m      6.0000   
  510.00000m      6.0000   
  515.00000m      6.0000   
  520.00000m      6.0000   
  525.00000m      6.0000   
  530.00000m      6.0000   
  535.00000m      5.9999   
  540.00000m      5.9999   
  545.00000m      5.9999   
  550.00000m      5.9999   
  555.00000m      5.9999   
  560.00000m      5.9999   
  565.00000m      5.9999   
  570.00000m      5.9999   
  575.00000m      5.9999   
  580.00000m      5.9999   
  585.00000m      5.9999   
  590.00000m      5.9999   
  595.00000m      5.9999   
  600.00000m      5.9999   
  605.00000m      5.9999   
  610.00000m      5.9999   
  615.00000m      5.9999   
  620.00000m      5.9999   
  625.00000m      5.9999   
  630.00000m      5.9999   
  635.00000m      5.9999   
  640.00000m      5.9999   
  645.00000m      5.9999   
  650.00000m      5.9999   
  655.00000m      5.9999   
  660.00000m      5.9999   
  665.00000m      5.9999   
  670.00000m      5.9999   
  675.00000m      5.9999   
  680.00000m      5.9999   
  685.00000m      5.9999   
  690.00000m      5.9999   
  695.00000m      5.9999   
  700.00000m      5.9999   
  705.00000m      5.9999   
  710.00000m      5.9999   
  715.00000m      5.9999   
  720.00000m      5.9999   
  725.00000m      5.9999   
  730.00000m      5.9999   
  735.00000m      5.9999   
  740.00000m      5.9999   
  745.00000m      5.9999   
  750.00000m      5.9999   
  755.00000m      5.9999   
  760.00000m      5.9999   
  765.00000m      5.9999   
  770.00000m      5.9999   
  775.00000m      5.9999   
  780.00000m      5.9999   
  785.00000m      5.9999   
  790.00000m      5.9999   
  795.00000m      5.9999   
  800.00000m      5.9999   
  805.00000m      5.9999   
  810.00000m      5.9999   
  815.00000m      5.9999   
  820.00000m      5.9999   
  825.00000m      5.9999   
  830.00000m      5.9999   
  835.00000m      5.9999   
  840.00000m      5.9999   
  845.00000m      5.9999   
  850.00000m      5.9999   
  855.00000m      5.9999   
  860.00000m      5.9999   
  865.00000m      5.9999   
  870.00000m      5.9999   
  875.00000m      5.9999   
  880.00000m      5.9999   
  885.00000m      5.9999   
  890.00000m      5.9999   
  895.00000m      5.9999   
  900.00000m      5.9999   
  905.00000m      5.9999   
  910.00000m      5.9999   
  915.00000m      5.9999   
  920.00000m      5.9999   
  925.00000m      5.9999   
  930.00000m      5.9999   
  935.00000m      5.9999   
  940.00000m      5.9999   
  945.00000m      5.9999   
  950.00000m      5.9999   
  955.00000m      5.9999   
  960.00000m      5.9999   
  965.00000m      5.9999   
  970.00000m      5.9999   
  975.00000m      5.9999   
  980.00000m      5.9999   
  985.00000m      5.9999   
  990.00000m      5.9999   
  995.00000m      5.9999   
    1.00000       5.9999   
    1.00500       5.9999   
    1.01000       5.9999   
    1.01500       5.9999   
    1.02000       5.9999   
    1.02500       5.9999   
    1.03000       5.9999   
    1.03500       5.9999   
    1.04000       5.9999   
    1.04500       5.9999   
    1.05000       5.9999   
    1.05500       5.9999   
    1.06000       5.9999   
    1.06500       5.9999   
    1.07000       5.9999   
    1.07500       5.9999   
    1.08000       5.9999   
    1.08500       5.9999   
    1.09000       5.9999   
    1.09500       5.9999   
    1.10000       5.9999   
    1.10500       5.9999   
    1.11000       5.9999   
    1.11500       5.9999   
    1.12000       5.9999   
    1.12500       5.9999   
    1.13000       5.9999   
    1.13500       5.9999   
    1.14000       5.9999   
    1.14500       5.9999   
    1.15000       5.9999   
    1.15500       5.9999   
    1.16000       5.9999   
    1.16500       5.9999   
    1.17000       5.9999   
    1.17500       5.9999   
    1.18000       5.9999   
    1.18500       5.9999   
    1.19000       5.9999   
    1.19500       5.9999   
    1.20000       5.9999   
    1.20500       5.9999   
    1.21000       5.9999   
    1.21500       5.9999   
    1.22000       5.9999   
    1.22500       5.9999   
    1.23000       5.9999   
    1.23500       5.9999   
    1.24000       5.9999   
    1.24500       5.9999   
    1.25000       5.9999   
    1.25500       5.9999   
    1.26000       5.9999   
    1.26500       5.9999   
    1.27000       5.9999   
    1.27500       5.9999   
    1.28000       5.9999   
    1.28500       5.9999   
    1.29000       5.9999   
    1.29500       5.9999   
    1.30000       5.9999   
    1.30500       5.9999   
    1.31000       5.9999   
    1.31500       5.9999   
    1.32000       5.9999   
    1.32500       5.9999   
    1.33000       5.9999   
    1.33500       5.9999   
    1.34000       5.9999   
    1.34500       5.9999   
    1.35000       5.9999   
    1.35500       5.9999   
    1.36000       5.9999   
    1.36500       5.9999   
    1.37000       5.9999   
    1.37500       5.9999   
    1.38000       5.9999   
    1.38500       5.9999   
    1.39000       5.9999   
    1.39500       5.9999   
    1.40000       5.9999   
    1.40500       5.9999   
    1.41000       5.9999   
    1.41500       5.9999   
    1.42000       5.9999   
    1.42500       5.9999   
    1.43000       5.9999   
    1.43500       5.9999   
    1.44000       5.9999   
    1.44500       5.9999   
    1.45000       5.9999   
    1.45500       5.9999   
    1.46000       5.9999   
    1.46500       5.9999   
    1.47000       5.9999   
    1.47500       5.9999   
    1.48000       5.9999   
    1.48500       5.9999   
    1.49000       5.9999   
    1.49500       5.9999   
    1.50000       5.9999   
    1.50500       5.9999   
    1.51000       5.9999   
    1.51500       5.9999   
    1.52000       5.9999   
    1.52500       5.9999   
    1.53000       5.9999   
    1.53500       5.9999   
    1.54000       5.9999   
    1.54500       5.9999   
    1.55000       5.9999   
    1.55500       5.9999   
    1.56000       5.9999   
    1.56500       5.9999   
    1.57000       5.9999   
    1.57500       5.9999   
    1.58000       5.9999   
    1.58500       5.9999   
    1.59000       5.9999   
    1.59500       5.9999   
    1.60000       5.9999   
    1.60500       5.9999   
    1.61000       5.9999   
    1.61500       5.9999   
    1.62000       5.9999   
    1.62500       5.9999   
    1.63000       5.9999   
    1.63500       5.9999   
    1.64000       5.9999   
    1.64500       5.9999   
    1.65000       5.9999   
    1.65500       5.9999   
    1.66000       5.9999   
    1.66500       5.9999   
    1.67000       5.9999   
    1.67500       5.9999   
    1.68000       5.9999   
    1.68500       5.9999   
    1.69000       5.9999   
    1.69500       5.9999   
    1.70000       5.9999   
    1.70500       5.9999   
    1.71000       5.9999   
    1.71500       5.9999   
    1.72000       5.9999   
    1.72500       5.9999   
    1.73000       5.9999   
    1.73500       5.9999   
    1.74000       5.9999   
    1.74500       5.9999   
    1.75000       5.9999   
    1.75500       5.9999   
    1.76000       5.9999   
    1.76500       5.9999   
    1.77000       5.9999   
    1.77500       5.9999   
    1.78000       5.9999   
    1.78500       5.9999   
    1.79000       5.9999   
    1.79500       5.9999   
    1.80000       5.9999   
    1.80500       5.9999   
    1.81000       5.9999   
    1.81500       5.9999   
    1.82000       5.9999   
    1.82500       5.9999   
    1.83000       5.9999   
    1.83500       5.9999   
    1.84000       5.9999   
    1.84500       5.9999   
    1.85000       5.9999   
    1.85500       5.9999   
    1.86000       5.9999   
    1.86500       5.9999   
    1.87000       5.9999   
    1.87500       5.9999   
    1.88000       5.9999   
    1.88500       5.9999   
    1.89000       5.9999   
    1.89500       5.9999   
    1.90000       5.9999   
    1.90500       5.9999   
    1.91000       5.9999   
    1.91500       5.9999   
    1.92000       5.9999   
    1.92500       5.9999   
    1.93000       5.9999   
    1.93500       5.9999   
    1.94000       5.9999   
    1.94500       5.9999   
    1.95000       5.9999   
    1.95500       5.9999   
    1.96000       5.9999   
    1.96500       5.9999   
    1.97000       5.9999   
    1.97500       5.9999   
    1.98000       5.9999   
    1.98500       5.9999   
    1.99000       5.9999   
    1.99500       5.9999   
    2.00000       5.9999   
    2.00500       5.9999   
    2.01000       5.9999   
    2.01500       5.9999   
    2.02000       5.9999   
    2.02500       5.9999   
    2.03000       5.9999   
    2.03500       5.9999   
    2.04000       5.9999   
    2.04500       5.9999   
    2.05000       5.9999   
    2.05500       5.9998   
    2.06000       5.9998   
    2.06500       5.9998   
    2.07000       5.9998   
    2.07500       5.9998   
    2.08000       5.9998   
    2.08500       5.9998   
    2.09000       5.9998   
    2.09500       5.9998   
    2.10000       5.9998   
    2.10500       5.9998   
    2.11000       5.9998   
    2.11500       5.9998   
    2.12000       5.9998   
    2.12500       5.9998   
    2.13000       5.9998   
    2.13500       5.9998   
    2.14000       5.9998   
    2.14500       5.9998   
    2.15000       5.9998   
    2.15500       5.9998   
    2.16000       5.9998   
    2.16500       5.9998   
    2.17000       5.9998   
    2.17500       5.9998   
    2.18000       5.9998   
    2.18500       5.9998   
    2.19000       5.9998   
    2.19500       5.9998   
    2.20000       5.9998   
    2.20500       5.9998   
    2.21000       5.9998   
    2.21500       5.9998   
    2.22000       5.9998   
    2.22500       5.9998   
    2.23000       5.9998   
    2.23500       5.9998   
    2.24000       5.9998   
    2.24500       5.9998   
    2.25000       5.9998   
    2.25500       5.9998   
    2.26000       5.9998   
    2.26500       5.9998   
    2.27000       5.9998   
    2.27500       5.9998   
    2.28000       5.9998   
    2.28500       5.9998   
    2.29000       5.9998   
    2.29500       5.9998   
    2.30000       5.9998   
    2.30500       5.9998   
    2.31000       5.9998   
    2.31500       5.9998   
    2.32000       5.9998   
    2.32500       5.9998   
    2.33000       5.9998   
    2.33500       5.9998   
    2.34000       5.9998   
    2.34500       5.9998   
    2.35000       5.9998   
    2.35500       5.9998   
    2.36000       5.9998   
    2.36500       5.9998   
    2.37000       5.9998   
    2.37500       5.9998   
    2.38000       5.9998   
    2.38500       5.9998   
    2.39000       5.9998   
    2.39500       5.9998   
    2.40000       5.9998   
    2.40500       5.9998   
    2.41000       5.9998   
    2.41500       5.9998   
    2.42000       5.9998   
    2.42500       5.9998   
    2.43000       5.9998   
    2.43500       5.9998   
    2.44000       5.9998   
    2.44500       5.9998   
    2.45000       5.9998   
    2.45500       5.9998   
    2.46000       5.9998   
    2.46500       5.9998   
    2.47000       5.9998   
    2.47500       5.9998   
    2.48000       5.9998   
    2.48500       5.9998   
    2.49000       5.9998   
    2.49500       5.9998   
    2.50000       5.9998   
    2.50500       5.9998   
    2.51000       5.9998   
    2.51500       5.9998   
    2.52000       5.9998   
    2.52500       5.9998   
    2.53000       5.9998   
    2.53500       5.9998   
    2.54000       5.9998   
    2.54500       5.9998   
    2.55000       5.9998   
    2.55500       5.9998   
    2.56000       5.9998   
    2.56500       5.9998   
    2.57000       5.9998   
    2.57500       5.9998   
    2.58000       5.9997   
    2.58500       5.9997   
    2.59000       5.9997   
    2.59500       5.9997   
    2.60000       5.9997   
    2.60500       5.9997   
    2.61000       5.9997   
    2.61500       5.9997   
    2.62000       5.9997   
    2.62500       5.9997   
    2.63000       5.9997   
    2.63500       5.9997   
    2.64000       5.9997   
    2.64500       5.9997   
    2.65000       5.9997   
    2.65500       5.9997   
    2.66000       5.9997   
    2.66500       5.9997   
    2.67000       5.9997   
    2.67500       5.9997   
    2.68000       5.9997   
    2.68500       5.9997   
    2.69000       5.9997   
    2.69500       5.9997   
    2.70000       5.9997   
    2.70500       5.9997   
    2.71000       5.9997   
    2.71500       5.9997   
    2.72000       5.9997   
    2.72500       5.9997   
    2.73000       5.9997   
    2.73500       5.9997   
    2.74000       5.9997   
    2.74500       5.9997   
    2.75000       5.9997   
    2.75500       5.9997   
    2.76000       5.9997   
    2.76500       5.9997   
    2.77000       5.9997   
    2.77500       5.9997   
    2.78000       5.9997   
    2.78500       5.9997   
    2.79000       5.9997   
    2.79500       5.9997   
    2.80000       5.9997   
    2.80500       5.9997   
    2.81000       5.9997   
    2.81500       5.9997   
    2.82000       5.9997   
    2.82500       5.9997   
    2.83000       5.9997   
    2.83500       5.9997   
    2.84000       5.9997   
    2.84500       5.9997   
    2.85000       5.9997   
    2.85500       5.9997   
    2.86000       5.9997   
    2.86500       5.9997   
    2.87000       5.9997   
    2.87500       5.9997   
    2.88000       5.9996   
    2.88500       5.9996   
    2.89000       5.9996   
    2.89500       5.9996   
    2.90000       5.9996   
    2.90500       5.9996   
    2.91000       5.9996   
    2.91500       5.9996   
    2.92000       5.9996   
    2.92500       5.9996   
    2.93000       5.9996   
    2.93500       5.9996   
    2.94000       5.9996   
    2.94500       5.9996   
    2.95000       5.9996   
    2.95500       5.9996   
    2.96000       5.9996   
    2.96500       5.9996   
    2.97000       5.9996   
    2.97500       5.9996   
    2.98000       5.9996   
    2.98500       5.9996   
    2.99000       5.9996   
    2.99500       5.9996   
    3.00000       5.9996   
    3.00500       5.9996   
    3.01000       5.9996   
    3.01500       5.9996   
    3.02000       5.9996   
    3.02500       5.9996   
    3.03000       5.9996   
    3.03500       5.9996   
    3.04000       5.9996   
    3.04500       5.9996   
    3.05000       5.9996   
    3.05500       5.9996   
    3.06000       5.9996   
    3.06500       5.9996   
    3.07000       5.9996   
    3.07500       5.9996   
    3.08000       5.9996   
    3.08500       5.9995   
    3.09000       5.9995   
    3.09500       5.9995   
    3.10000       5.9995   
    3.10500       5.9995   
    3.11000       5.9995   
    3.11500       5.9995   
    3.12000       5.9995   
    3.12500       5.9995   
    3.13000       5.9995   
    3.13500       5.9995   
    3.14000       5.9995   
    3.14500       5.9995   
    3.15000       5.9995   
    3.15500       5.9995   
    3.16000       5.9995   
    3.16500       5.9995   
    3.17000       5.9995   
    3.17500       5.9995   
    3.18000       5.9995   
    3.18500       5.9995   
    3.19000       5.9995   
    3.19500       5.9995   
    3.20000       5.9995   
    3.20500       5.9995   
    3.21000       5.9995   
    3.21500       5.9995   
    3.22000       5.9995   
    3.22500       5.9995   
    3.23000       5.9995   
    3.23500       5.9995   
    3.24000       5.9995   
    3.24500       5.9994   
    3.25000       5.9994   
    3.25500       5.9994   
    3.26000       5.9994   
    3.26500       5.9994   
    3.27000       5.9994   
    3.27500       5.9994   
    3.28000       5.9994   
    3.28500       5.9994   
    3.29000       5.9994   
    3.29500       5.9994   
    3.30000       5.9994   
    3.30500       5.9994   
    3.31000       5.9994   
    3.31500       5.9994   
    3.32000       5.9994   
    3.32500       5.9994   
    3.33000       5.9994   
    3.33500       5.9994   
    3.34000       5.9994   
    3.34500       5.9994   
    3.35000       5.9994   
    3.35500       5.9994   
    3.36000       5.9994   
    3.36500       5.9994   
    3.37000       5.9994   
    3.37500       5.9993   
    3.38000       5.9993   
    3.38500       5.9993   
    3.39000       5.9993   
    3.39500       5.9993   
    3.40000       5.9993   
    3.40500       5.9993   
    3.41000       5.9993   
    3.41500       5.9993   
    3.42000       5.9993   
    3.42500       5.9993   
    3.43000       5.9993   
    3.43500       5.9993   
    3.44000       5.9993   
    3.44500       5.9993   
    3.45000       5.9993   
    3.45500       5.9993   
    3.46000       5.9993   
    3.46500       5.9993   
    3.47000       5.9993   
    3.47500       5.9993   
    3.48000       5.9992   
    3.48500       5.9992   
    3.49000       5.9992   
    3.49500       5.9992   
    3.50000       5.9992   
    3.50500       5.9992   
    3.51000       5.9992   
    3.51500       5.9992   
    3.52000       5.9992   
    3.52500       5.9992   
    3.53000       5.9992   
    3.53500       5.9992   
    3.54000       5.9992   
    3.54500       5.9992   
    3.55000       5.9992   
    3.55500       5.9992   
    3.56000       5.9992   
    3.56500       5.9992   
    3.57000       5.9992   
    3.57500       5.9991   
    3.58000       5.9991   
    3.58500       5.9991   
    3.59000       5.9991   
    3.59500       5.9991   
    3.60000       5.9991   
    3.60500       5.9991   
    3.61000       5.9991   
    3.61500       5.9991   
    3.62000       5.9991   
    3.62500       5.9991   
    3.63000       5.9991   
    3.63500       5.9991   
    3.64000       5.9991   
    3.64500       5.9991   
    3.65000       5.9991   
    3.65500       5.9990   
    3.66000       5.9990   
    3.66500       5.9990   
    3.67000       5.9990   
    3.67500       5.9990   
    3.68000       5.9990   
    3.68500       5.9990   
    3.69000       5.9990   
    3.69500       5.9990   
    3.70000       5.9990   
    3.70500       5.9990   
    3.71000       5.9990   
    3.71500       5.9990   
    3.72000       5.9990   
    3.72500       5.9990   
    3.73000       5.9989   
    3.73500       5.9989   
    3.74000       5.9989   
    3.74500       5.9989   
    3.75000       5.9989   
    3.75500       5.9989   
    3.76000       5.9989   
    3.76500       5.9989   
    3.77000       5.9989   
    3.77500       5.9989   
    3.78000       5.9989   
    3.78500       5.9989   
    3.79000       5.9989   
    3.79500       5.9988   
    3.80000       5.9988   
    3.80500       5.9988   
    3.81000       5.9988   
    3.81500       5.9988   
    3.82000       5.9988   
    3.82500       5.9988   
    3.83000       5.9988   
    3.83500       5.9988   
    3.84000       5.9988   
    3.84500       5.9988   
    3.85000       5.9988   
    3.85500       5.9987   
    3.86000       5.9987   
    3.86500       5.9987   
    3.87000       5.9987   
    3.87500       5.9987   
    3.88000       5.9987   
    3.88500       5.9987   
    3.89000       5.9987   
    3.89500       5.9987   
    3.90000       5.9987   
    3.90500       5.9986   
    3.91000       5.9986   
    3.91500       5.9986   
    3.92000       5.9986   
    3.92500       5.9986   
    3.93000       5.9986   
    3.93500       5.9986   
    3.94000       5.9986   
    3.94500       5.9986   
    3.95000       5.9986   
    3.95500       5.9985   
    3.96000       5.9985   
    3.96500       5.9985   
    3.97000       5.9985   
    3.97500       5.9985   
    3.98000       5.9985   
    3.98500       5.9985   
    3.99000       5.9985   
    3.99500       5.9985   
    4.00000       5.9985   
    4.00500       5.9984   
    4.01000       5.9984   
    4.01500       5.9984   
    4.02000       5.9984   
    4.02500       5.9984   
    4.03000       5.9984   
    4.03500       5.9984   
    4.04000       5.9984   
    4.04500       5.9983   
    4.05000       5.9983   
    4.05500       5.9983   
    4.06000       5.9983   
    4.06500       5.9983   
    4.07000       5.9983   
    4.07500       5.9983   
    4.08000       5.9983   
    4.08500       5.9983   
    4.09000       5.9982   
    4.09500       5.9982   
    4.10000       5.9982   
    4.10500       5.9982   
    4.11000       5.9982   
    4.11500       5.9982   
    4.12000       5.9982   
    4.12500       5.9981   
    4.13000       5.9981   
    4.13500       5.9981   
    4.14000       5.9981   
    4.14500       5.9981   
    4.15000       5.9981   
    4.15500       5.9981   
    4.16000       5.9981   
    4.16500       5.9980   
    4.17000       5.9980   
    4.17500       5.9980   
    4.18000       5.9980   
    4.18500       5.9980   
    4.19000       5.9980   
    4.19500       5.9979   
    4.20000       5.9979   
    4.20500       5.9979   
    4.21000       5.9979   
    4.21500       5.9979   
    4.22000       5.9979   
    4.22500       5.9979   
    4.23000       5.9978   
    4.23500       5.9978   
    4.24000       5.9978   
    4.24500       5.9978   
    4.25000       5.9978   
    4.25500       5.9978   
    4.26000       5.9977   
    4.26500       5.9977   
    4.27000       5.9977   
    4.27500       5.9977   
    4.28000       5.9977   
    4.28500       5.9977   
    4.29000       5.9976   
    4.29500       5.9976   
    4.30000       5.9976   
    4.30500       5.9976   
    4.31000       5.9976   
    4.31500       5.9976   
    4.32000       5.9975   
    4.32500       5.9975   
    4.33000       5.9975   
    4.33500       5.9975   
    4.34000       5.9975   
    4.34500       5.9974   
    4.35000       5.9974   
    4.35500       5.9974   
    4.36000       5.9974   
    4.36500       5.9974   
    4.37000       5.9973   
    4.37500       5.9973   
    4.38000       5.9973   
    4.38500       5.9973   
    4.39000       5.9973   
    4.39500       5.9972   
    4.40000       5.9972   
    4.40500       5.9972   
    4.41000       5.9972   
    4.41500       5.9972   
    4.42000       5.9971   
    4.42500       5.9971   
    4.43000       5.9971   
    4.43500       5.9971   
    4.44000       5.9971   
    4.44500       5.9970   
    4.45000       5.9970   
    4.45500       5.9970   
    4.46000       5.9970   
    4.46500       5.9969   
    4.47000       5.9969   
    4.47500       5.9969   
    4.48000       5.9969   
    4.48500       5.9969   
    4.49000       5.9968   
    4.49500       5.9968   
    4.50000       5.9968   
    4.50500       5.9968   
    4.51000       5.9967   
    4.51500       5.9967   
    4.52000       5.9967   
    4.52500       5.9967   
    4.53000       5.9966   
    4.53500       5.9966   
    4.54000       5.9966   
    4.54500       5.9966   
    4.55000       5.9965   
    4.55500       5.9965   
    4.56000       5.9965   
    4.56500       5.9965   
    4.57000       5.9964   
    4.57500       5.9964   
    4.58000       5.9964   
    4.58500       5.9964   
    4.59000       5.9963   
    4.59500       5.9963   
    4.60000       5.9963   
    4.60500       5.9962   
    4.61000       5.9962   
    4.61500       5.9962   
    4.62000       5.9962   
    4.62500       5.9961   
    4.63000       5.9961   
    4.63500       5.9961   
    4.64000       5.9960   
    4.64500       5.9960   
    4.65000       5.9960   
    4.65500       5.9960   
    4.66000       5.9959   
    4.66500       5.9959   
    4.67000       5.9959   
    4.67500       5.9958   
    4.68000       5.9958   
    4.68500       5.9958   
    4.69000       5.9957   
    4.69500       5.9957   
    4.70000       5.9957   
    4.70500       5.9956   
    4.71000       5.9956   
    4.71500       5.9956   
    4.72000       5.9955   
    4.72500       5.9955   
    4.73000       5.9955   
    4.73500       5.9954   
    4.74000       5.9954   
    4.74500       5.9954   
    4.75000       5.9953   
    4.75500       5.9953   
    4.76000       5.9953   
    4.76500       5.9952   
    4.77000       5.9952   
    4.77500       5.9952   
    4.78000       5.9951   
    4.78500       5.9951   
    4.79000       5.9950   
    4.79500       5.9950   
    4.80000       5.9950   
    4.80500       5.9949   
    4.81000       5.9949   
    4.81500       5.9949   
    4.82000       5.9948   
    4.82500       5.9948   
    4.83000       5.9947   
    4.83500       5.9947   
    4.84000       5.9947   
    4.84500       5.9946   
    4.85000       5.9946   
    4.85500       5.9945   
    4.86000       5.9945   
    4.86500       5.9945   
    4.87000       5.9944   
    4.87500       5.9944   
    4.88000       5.9943   
    4.88500       5.9943   
    4.89000       5.9942   
    4.89500       5.9942   
    4.90000       5.9942   
    4.90500       5.9941   
    4.91000       5.9941   
    4.91500       5.9940   
    4.92000       5.9940   
    4.92500       5.9939   
    4.93000       5.9939   
    4.93500       5.9938   
    4.94000       5.9938   
    4.94500       5.9937   
    4.95000       5.9937   
    4.95500       5.9936   
    4.96000       5.9936   
    4.96500       5.9935   
    4.97000       5.9935   
    4.97500       5.9934   
    4.98000       5.9934   
    4.98500       5.9934   
    4.99000       5.9933   
    4.99500       5.9932   
    5.00000       5.9932   
    5.00500       5.9931   
    5.01000       5.9931   
    5.01500       5.9930   
    5.02000       5.9930   
    5.02500       5.9929   
    5.03000       5.9929   
    5.03500       5.9928   
    5.04000       5.9928   
    5.04500       5.9927   
    5.05000       5.9927   
    5.05500       5.9926   
    5.06000       5.9926   
    5.06500       5.9925   
    5.07000       5.9924   
    5.07500       5.9924   
    5.08000       5.9923   
    5.08500       5.9923   
    5.09000       5.9922   
    5.09500       5.9921   
    5.10000       5.9921   
    5.10500       5.9920   
    5.11000       5.9920   
    5.11500       5.9919   
    5.12000       5.9918   
    5.12500       5.9918   
    5.13000       5.9917   
    5.13500       5.9917   
    5.14000       5.9916   
    5.14500       5.9915   
    5.15000       5.9915   
    5.15500       5.9914   
    5.16000       5.9913   
    5.16500       5.9913   
    5.17000       5.9912   
    5.17500       5.9911   
    5.18000       5.9911   
    5.18500       5.9910   
    5.19000       5.9909   
    5.19500       5.9909   
    5.20000       5.9908   
    5.20500       5.9907   
    5.21000       5.9906   
    5.21500       5.9906   
    5.22000       5.9905   
    5.22500       5.9904   
    5.23000       5.9904   
    5.23500       5.9903   
    5.24000       5.9902   
    5.24500       5.9901   
    5.25000       5.9901   
    5.25500       5.9900   
    5.26000       5.9899   
    5.26500       5.9898   
    5.27000       5.9898   
    5.27500       5.9897   
    5.28000       5.9896   
    5.28500       5.9895   
    5.29000       5.9894   
    5.29500       5.9894   
    5.30000       5.9893   
    5.30500       5.9892   
    5.31000       5.9891   
    5.31500       5.9890   
    5.32000       5.9889   
    5.32500       5.9889   
    5.33000       5.9888   
    5.33500       5.9887   
    5.34000       5.9886   
    5.34500       5.9885   
    5.35000       5.9884   
    5.35500       5.9883   
    5.36000       5.9883   
    5.36500       5.9882   
    5.37000       5.9881   
    5.37500       5.9880   
    5.38000       5.9879   
    5.38500       5.9878   
    5.39000       5.9877   
    5.39500       5.9876   
    5.40000       5.9875   
    5.40500       5.9874   
    5.41000       5.9873   
    5.41500       5.9872   
    5.42000       5.9871   
    5.42500       5.9870   
    5.43000       5.9869   
    5.43500       5.9868   
    5.44000       5.9867   
    5.44500       5.9866   
    5.45000       5.9865   
    5.45500       5.9864   
    5.46000       5.9863   
    5.46500       5.9862   
    5.47000       5.9861   
    5.47500       5.9860   
    5.48000       5.9859   
    5.48500       5.9858   
    5.49000       5.9857   
    5.49500       5.9856   
    5.50000       5.9855   
    5.50500       5.9853   
    5.51000       5.9852   
    5.51500       5.9851   
    5.52000       5.9850   
    5.52500       5.9849   
    5.53000       5.9848   
    5.53500       5.9847   
    5.54000       5.9845   
    5.54500       5.9844   
    5.55000       5.9843   
    5.55500       5.9842   
    5.56000       5.9841   
    5.56500       5.9839   
    5.57000       5.9838   
    5.57500       5.9837   
    5.58000       5.9836   
    5.58500       5.9834   
    5.59000       5.9833   
    5.59500       5.9832   
    5.60000       5.9831   
    5.60500       5.9829   
    5.61000       5.9828   
    5.61500       5.9827   
    5.62000       5.9825   
    5.62500       5.9824   
    5.63000       5.9823   
    5.63500       5.9821   
    5.64000       5.9820   
    5.64500       5.9819   
    5.65000       5.9817   
    5.65500       5.9816   
    5.66000       5.9814   
    5.66500       5.9813   
    5.67000       5.9812   
    5.67500       5.9810   
    5.68000       5.9809   
    5.68500       5.9807   
    5.69000       5.9806   
    5.69500       5.9804   
    5.70000       5.9803   
    5.70500       5.9801   
    5.71000       5.9800   
    5.71500       5.9798   
    5.72000       5.9797   
    5.72500       5.9795   
    5.73000       5.9793   
    5.73500       5.9792   
    5.74000       5.9790   
    5.74500       5.9789   
    5.75000       5.9787   
    5.75500       5.9785   
    5.76000       5.9784   
    5.76500       5.9782   
    5.77000       5.9780   
    5.77500       5.9779   
    5.78000       5.9777   
    5.78500       5.9775   
    5.79000       5.9774   
    5.79500       5.9772   
    5.80000       5.9770   
    5.80500       5.9768   
    5.81000       5.9767   
    5.81500       5.9765   
    5.82000       5.9763   
    5.82500       5.9761   
    5.83000       5.9759   
    5.83500       5.9757   
    5.84000       5.9756   
    5.84500       5.9754   
    5.85000       5.9752   
    5.85500       5.9750   
    5.86000       5.9748   
    5.86500       5.9746   
    5.87000       5.9744   
    5.87500       5.9742   
    5.88000       5.9740   
    5.88500       5.9738   
    5.89000       5.9736   
    5.89500       5.9734   
    5.90000       5.9732   
    5.90500       5.9730   
    5.91000       5.9728   
    5.91500       5.9726   
    5.92000       5.9724   
    5.92500       5.9722   
    5.93000       5.9720   
    5.93500       5.9717   
    5.94000       5.9715   
    5.94500       5.9713   
    5.95000       5.9711   
    5.95500       5.9709   
    5.96000       5.9706   
    5.96500       5.9704   
    5.97000       5.9702   
    5.97500       5.9700   
    5.98000       5.9697   
    5.98500       5.9695   
    5.99000       5.9693   
    5.99500       5.9690   
    6.00000       5.9688   
    6.00500       5.9685   
    6.01000       5.9683   
    6.01500       5.9681   
    6.02000       5.9678   
    6.02500       5.9676   
    6.03000       5.9673   
    6.03500       5.9671   
    6.04000       5.9668   
    6.04500       5.9666   
    6.05000       5.9663   
    6.05500       5.9661   
    6.06000       5.9658   
    6.06500       5.9655   
    6.07000       5.9653   
    6.07500       5.9650   
    6.08000       5.9647   
    6.08500       5.9645   
    6.09000       5.9642   
    6.09500       5.9639   
    6.10000       5.9636   
    6.10500       5.9634   
    6.11000       5.9631   
    6.11500       5.9628   
    6.12000       5.9625   
    6.12500       5.9622   
    6.13000       5.9619   
    6.13500       5.9616   
    6.14000       5.9613   
    6.14500       5.9610   
    6.15000       5.9607   
    6.15500       5.9604   
    6.16000       5.9601   
    6.16500       5.9598   
    6.17000       5.9595   
    6.17500       5.9592   
    6.18000       5.9589   
    6.18500       5.9586   
    6.19000       5.9583   
    6.19500       5.9580   
    6.20000       5.9576   
    6.20500       5.9573   
    6.21000       5.9570   
    6.21500       5.9566   
    6.22000       5.9563   
    6.22500       5.9560   
    6.23000       5.9556   
    6.23500       5.9553   
    6.24000       5.9550   
    6.24500       5.9546   
    6.25000       5.9543   
    6.25500       5.9539   
    6.26000       5.9536   
    6.26500       5.9532   
    6.27000       5.9529   
    6.27500       5.9525   
    6.28000       5.9521   
    6.28500       5.9518   
    6.29000       5.9514   
    6.29500       5.9510   
    6.30000       5.9506   
    6.30500       5.9503   
    6.31000       5.9499   
    6.31500       5.9495   
    6.32000       5.9491   
    6.32500       5.9487   
    6.33000       5.9483   
    6.33500       5.9479   
    6.34000       5.9475   
    6.34500       5.9471   
    6.35000       5.9467   
    6.35500       5.9463   
    6.36000       5.9459   
    6.36500       5.9455   
    6.37000       5.9451   
    6.37500       5.9447   
    6.38000       5.9442   
    6.38500       5.9438   
    6.39000       5.9434   
    6.39500       5.9429   
    6.40000       5.9425   
    6.40500       5.9421   
    6.41000       5.9416   
    6.41500       5.9412   
    6.42000       5.9407   
    6.42500       5.9403   
    6.43000       5.9398   
    6.43500       5.9394   
    6.44000       5.9389   
    6.44500       5.9384   
    6.45000       5.9379   
    6.45500       5.9375   
    6.46000       5.9370   
    6.46500       5.9365   
    6.47000       5.9360   
    6.47500       5.9355   
    6.48000       5.9350   
    6.48500       5.9346   
    6.49000       5.9340   
    6.49500       5.9335   
    6.50000       5.9330   
    6.50500       5.9325   
    6.51000       5.9320   
    6.51500       5.9315   
    6.52000       5.9310   
    6.52500       5.9304   
    6.53000       5.9299   
    6.53500       5.9294   
    6.54000       5.9288   
    6.54500       5.9283   
    6.55000       5.9277   
    6.55500       5.9272   
    6.56000       5.9266   
    6.56500       5.9261   
    6.57000       5.9255   
    6.57500       5.9249   
    6.58000       5.9244   
    6.58500       5.9238   
    6.59000       5.9232   
    6.59500       5.9226   
    6.60000       5.9220   
    6.60500       5.9214   
    6.61000       5.9208   
    6.61500       5.9202   
    6.62000       5.9196   
    6.62500       5.9190   
    6.63000       5.9184   
    6.63500       5.9178   
    6.64000       5.9171   
    6.64500       5.9165   
    6.65000       5.9159   
    6.65500       5.9152   
    6.66000       5.9146   
    6.66500       5.9139   
    6.67000       5.9133   
    6.67500       5.9126   
    6.68000       5.9119   
    6.68500       5.9113   
    6.69000       5.9106   
    6.69500       5.9099   
    6.70000       5.9092   
    6.70500       5.9085   
    6.71000       5.9078   
    6.71500       5.9071   
    6.72000       5.9064   
    6.72500       5.9057   
    6.73000       5.9050   
    6.73500       5.9043   
    6.74000       5.9036   
    6.74500       5.9028   
    6.75000       5.9021   
    6.75500       5.9013   
    6.76000       5.9006   
    6.76500       5.8998   
    6.77000       5.8991   
    6.77500       5.8983   
    6.78000       5.8975   
    6.78500       5.8967   
    6.79000       5.8960   
    6.79500       5.8952   
    6.80000       5.8944   
    6.80500       5.8936   
    6.81000       5.8928   
    6.81500       5.8919   
    6.82000       5.8911   
    6.82500       5.8903   
    6.83000       5.8895   
    6.83500       5.8886   
    6.84000       5.8878   
    6.84500       5.8869   
    6.85000       5.8861   
    6.85500       5.8852   
    6.86000       5.8843   
    6.86500       5.8835   
    6.87000       5.8826   
    6.87500       5.8817   
    6.88000       5.8808   
    6.88500       5.8799   
    6.89000       5.8790   
    6.89500       5.8780   
    6.90000       5.8771   
    6.90500       5.8762   
    6.91000       5.8753   
    6.91500       5.8743   
    6.92000       5.8734   
    6.92500       5.8724   
    6.93000       5.8714   
    6.93500       5.8705   
    6.94000       5.8695   
    6.94500       5.8685   
    6.95000       5.8675   
    6.95500       5.8665   
    6.96000       5.8655   
    6.96500       5.8645   
    6.97000       5.8634   
    6.97500       5.8624   
    6.98000       5.8614   
    6.98500       5.8603   
    6.99000       5.8593   
    6.99500       5.8582   
    7.00000       5.8571   
    7.00500       5.8560   
    7.01000       5.8550   
    7.01500       5.8539   
    7.02000       5.8528   
    7.02500       5.8517   
    7.03000       5.8505   
    7.03500       5.8494   
    7.04000       5.8483   
    7.04500       5.8471   
    7.05000       5.8460   
    7.05500       5.8448   
    7.06000       5.8436   
    7.06500       5.8425   
    7.07000       5.8413   
    7.07500       5.8401   
    7.08000       5.8389   
    7.08500       5.8377   
    7.09000       5.8364   
    7.09500       5.8352   
    7.10000       5.8340   
    7.10500       5.8327   
    7.11000       5.8315   
    7.11500       5.8302   
    7.12000       5.8289   
    7.12500       5.8276   
    7.13000       5.8263   
    7.13500       5.8250   
    7.14000       5.8237   
    7.14500       5.8224   
    7.15000       5.8211   
    7.15500       5.8197   
    7.16000       5.8184   
    7.16500       5.8170   
    7.17000       5.8156   
    7.17500       5.8142   
    7.18000       5.8128   
    7.18500       5.8114   
    7.19000       5.8100   
    7.19500       5.8086   
    7.20000       5.8072   
    7.20500       5.8057   
    7.21000       5.8043   
    7.21500       5.8028   
    7.22000       5.8013   
    7.22500       5.7999   
    7.23000       5.7984   
    7.23500       5.7968   
    7.24000       5.7953   
    7.24500       5.7938   
    7.25000       5.7923   
    7.25500       5.7907   
    7.26000       5.7891   
    7.26500       5.7876   
    7.27000       5.7860   
    7.27500       5.7844   
    7.28000       5.7828   
    7.28500       5.7812   
    7.29000       5.7795   
    7.29500       5.7779   
    7.30000       5.7762   
    7.30500       5.7746   
    7.31000       5.7729   
    7.31500       5.7712   
    7.32000       5.7695   
    7.32500       5.7678   
    7.33000       5.7661   
    7.33500       5.7643   
    7.34000       5.7626   
    7.34500       5.7608   
    7.35000       5.7590   
    7.35500       5.7572   
    7.36000       5.7554   
    7.36500       5.7536   
    7.37000       5.7518   
    7.37500       5.7500   
    7.38000       5.7481   
    7.38500       5.7462   
    7.39000       5.7444   
    7.39500       5.7425   
    7.40000       5.7406   
    7.40500       5.7386   
    7.41000       5.7367   
    7.41500       5.7348   
    7.42000       5.7328   
    7.42500       5.7308   
    7.43000       5.7288   
    7.43500       5.7268   
    7.44000       5.7248   
    7.44500       5.7228   
    7.45000       5.7208   
    7.45500       5.7187   
    7.46000       5.7166   
    7.46500       5.7145   
    7.47000       5.7124   
    7.47500       5.7103   
    7.48000       5.7082   
    7.48500       5.7061   
    7.49000       5.7039   
    7.49500       5.7017   
    7.50000       5.6995   
    7.50500       5.6973   
    7.51000       5.6951   
    7.51500       5.6929   
    7.52000       5.6906   
    7.52500       5.6884   
    7.53000       5.6861   
    7.53500       5.6838   
    7.54000       5.6815   
    7.54500       5.6791   
    7.55000       5.6768   
    7.55500       5.6744   
    7.56000       5.6721   
    7.56500       5.6697   
    7.57000       5.6673   
    7.57500       5.6648   
    7.58000       5.6624   
    7.58500       5.6599   
    7.59000       5.6575   
    7.59500       5.6550   
    7.60000       5.6525   
    7.60500       5.6499   
    7.61000       5.6474   
    7.61500       5.6448   
    7.62000       5.6423   
    7.62500       5.6397   
    7.63000       5.6371   
    7.63500       5.6344   
    7.64000       5.6318   
    7.64500       5.6291   
    7.65000       5.6264   
    7.65500       5.6237   
    7.66000       5.6210   
    7.66500       5.6183   
    7.67000       5.6155   
    7.67500       5.6128   
    7.68000       5.6100   
    7.68500       5.6072   
    7.69000       5.6043   
    7.69500       5.6015   
    7.70000       5.5986   
    7.70500       5.5957   
    7.71000       5.5928   
    7.71500       5.5899   
    7.72000       5.5870   
    7.72500       5.5840   
    7.73000       5.5811   
    7.73500       5.5781   
    7.74000       5.5750   
    7.74500       5.5720   
    7.75000       5.5690   
    7.75500       5.5659   
    7.76000       5.5628   
    7.76500       5.5597   
    7.77000       5.5565   
    7.77500       5.5534   
    7.78000       5.5502   
    7.78500       5.5470   
    7.79000       5.5438   
    7.79500       5.5406   
    7.80000       5.5373   
    7.80500       5.5340   
    7.81000       5.5308   
    7.81500       5.5274   
    7.82000       5.5241   
    7.82500       5.5207   
    7.83000       5.5174   
    7.83500       5.5140   
    7.84000       5.5106   
    7.84500       5.5071   
    7.85000       5.5037   
    7.85500       5.5002   
    7.86000       5.4967   
    7.86500       5.4931   
    7.87000       5.4896   
    7.87500       5.4860   
    7.88000       5.4824   
    7.88500       5.4788   
    7.89000       5.4752   
    7.89500       5.4716   
    7.90000       5.4679   
    7.90500       5.4642   
    7.91000       5.4605   
    7.91500       5.4567   
    7.92000       5.4530   
    7.92500       5.4492   
    7.93000       5.4454   
    7.93500       5.4416   
    7.94000       5.4377   
    7.94500       5.4338   
    7.95000       5.4299   
    7.95500       5.4260   
    7.96000       5.4221   
    7.96500       5.4181   
    7.97000       5.4142   
    7.97500       5.4101   
    7.98000       5.4061   
    7.98500       5.4021   
    7.99000       5.3980   
    7.99500       5.3939   
    8.00000       5.3898   
    8.00500       5.3857   
    8.01000       5.3815   
    8.01500       5.3773   
    8.02000       5.3731   
    8.02500       5.3689   
    8.03000       5.3647   
    8.03500       5.3604   
    8.04000       5.3561   
    8.04500       5.3518   
    8.05000       5.3475   
    8.05500       5.3431   
    8.06000       5.3388   
    8.06500       5.3344   
    8.07000       5.3300   
    8.07500       5.3255   
    8.08000       5.3211   
    8.08500       5.3166   
    8.09000       5.3121   
    8.09500       5.3076   
    8.10000       5.3030   
    8.10500       5.2985   
    8.11000       5.2939   
    8.11500       5.2893   
    8.12000       5.2847   
    8.12500       5.2801   
    8.13000       5.2754   
    8.13500       5.2707   
    8.14000       5.2661   
    8.14500       5.2614   
    8.15000       5.2566   
    8.15500       5.2519   
    8.16000       5.2471   
    8.16500       5.2424   
    8.17000       5.2376   
    8.17500       5.2328   
    8.18000       5.2280   
    8.18500       5.2231   
    8.19000       5.2183   
    8.19500       5.2135   
    8.20000       5.2086   
    8.20500       5.2037   
    8.21000       5.1988   
    8.21500       5.1939   
    8.22000       5.1890   
    8.22500       5.1841   
    8.23000       5.1792   
    8.23500       5.1743   
    8.24000       5.1694   
    8.24500       5.1645   
    8.25000       5.1595   
    8.25500       5.1546   
    8.26000       5.1497   
    8.26500       5.1448   
    8.27000       5.1399   
    8.27500       5.1350   
    8.28000       5.1301   
    8.28500       5.1252   
    8.29000       5.1204   
    8.29500       5.1155   
    8.30000       5.1107   
    8.30500       5.1059   
    8.31000       5.1012   
    8.31500       5.0965   
    8.32000       5.0918   
    8.32500       5.0871   
    8.33000       5.0825   
    8.33500       5.0780   
    8.34000       5.0735   
    8.34500       5.0691   
    8.35000       5.0648   
    8.35500       5.0605   
    8.36000       5.0563   
    8.36500       5.0523   
    8.37000       5.0483   
    8.37500       5.0445   
    8.38000       5.0407   
    8.38500       5.0371   
    8.39000       5.0337   
    8.39500       5.0304   
    8.40000       5.0273   
    8.40500       5.0244   
    8.41000       5.0216   
    8.41500       5.0190   
    8.42000       5.0167   
    8.42500       5.0145   
    8.43000       5.0126   
    8.43500       5.0108   
    8.44000       5.0092   
    8.44500       5.0078   
    8.45000       5.0066   
    8.45500       5.0056   
    8.46000       5.0046   
    8.46500       5.0039   
    8.47000       5.0032   
    8.47500       5.0027   
    8.48000       5.0022   
    8.48500       5.0018   
    8.49000       5.0015   
    8.49500       5.0012   
    8.50000       5.0010   
    8.50500       5.0008   
    8.51000       5.0007   
    8.51500       5.0005   
    8.52000       5.0004   
    8.52500       5.0004   
    8.53000       5.0003   
    8.53500       5.0002   
    8.54000       5.0002   
    8.54500       5.0001   
    8.55000       5.0001   
    8.55500       5.0001   
    8.56000       5.0001   
    8.56500       5.0001   
    8.57000       5.0000   
    8.57500       5.0000   
    8.58000       5.0000   
    8.58500       5.0000   
    8.59000       5.0000   
    8.59500       5.0000   
    8.60000       5.0000   
    8.60500       5.0000   
    8.61000       5.0000   
    8.61500       5.0000   
    8.62000       5.0000   
    8.62500       5.0000   
    8.63000       5.0000   
    8.63500       5.0000   
    8.64000       5.0000   
    8.64500       5.0000   
    8.65000       5.0000   
    8.65500       5.0000   
    8.66000       5.0000   
    8.66500       5.0000   
    8.67000       5.0000   
    8.67500       5.0000   
    8.68000       5.0000   
    8.68500       5.0000   
    8.69000       5.0000   
    8.69500       5.0000   
    8.70000       5.0000   
    8.70500       5.0000   
    8.71000       5.0000   
    8.71500       5.0000   
    8.72000       5.0000   
    8.72500       5.0000   
    8.73000       5.0000   
    8.73500       5.0000   
    8.74000       5.0000   
    8.74500       5.0000   
    8.75000       5.0000   
    8.75500       5.0000   
    8.76000       5.0000   
    8.76500       5.0000   
    8.77000       5.0000   
    8.77500       5.0000   
    8.78000       5.0000   
    8.78500       5.0000   
    8.79000       5.0000   
    8.79500       5.0000   
    8.80000       5.0000   
    8.80500       5.0000   
    8.81000       5.0000   
    8.81500       5.0000   
    8.82000       5.0000   
    8.82500       5.0000   
    8.83000       5.0000   
    8.83500       5.0000   
    8.84000       5.0000   
    8.84500       5.0000   
    8.85000       5.0000   
    8.85500       5.0000   
    8.86000       5.0000   
    8.86500       5.0000   
    8.87000       5.0000   
    8.87500       5.0000   
    8.88000       5.0000   
    8.88500       5.0000   
    8.89000       5.0000   
    8.89500       5.0000   
    8.90000       5.0000   
    8.90500       5.0000   
    8.91000       5.0000   
    8.91500       5.0000   
    8.92000       5.0000   
    8.92500       5.0000   
    8.93000       5.0000   
    8.93500       5.0000   
    8.94000       5.0000   
    8.94500       5.0000   
    8.95000       5.0000   
    8.95500       5.0000   
    8.96000       5.0000   
    8.96500       5.0000   
    8.97000       5.0000   
    8.97500       5.0000   
    8.98000       5.0000   
    8.98500       5.0000   
    8.99000       5.0000   
    8.99500       5.0000   
    9.00000       5.0000   
    9.00500       5.0000   
    9.01000       5.0000   
    9.01500       5.0000   
    9.02000       5.0000   
    9.02500       5.0000   
    9.03000       5.0000   
    9.03500       5.0000   
    9.04000       5.0000   
    9.04500       5.0000   
    9.05000       5.0000   
    9.05500       5.0000   
    9.06000       5.0000   
    9.06500       5.0000   
    9.07000       5.0000   
    9.07500       5.0000   
    9.08000       5.0000   
    9.08500       5.0000   
    9.09000       5.0000   
    9.09500       5.0000   
    9.10000       5.0000   
    9.10500       5.0000   
    9.11000       5.0000   
    9.11500       5.0000   
    9.12000       5.0000   
    9.12500       5.0000   
    9.13000       5.0000   
    9.13500       5.0000   
    9.14000       5.0000   
    9.14500       5.0000   
    9.15000       5.0000   
    9.15500       5.0000   
    9.16000       5.0000   
    9.16500       5.0000   
    9.17000       5.0000   
    9.17500       5.0000   
    9.18000       5.0000   
    9.18500       5.0000   
    9.19000       5.0000   
    9.19500       5.0000   
    9.20000       5.0000   
    9.20500       5.0000   
    9.21000       5.0000   
    9.21500       5.0000   
    9.22000       5.0000   
    9.22500       5.0000   
    9.23000       5.0000   
    9.23500       5.0000   
    9.24000       5.0000   
    9.24500       5.0000   
    9.25000       5.0000   
    9.25500       5.0000   
    9.26000       5.0000   
    9.26500       5.0000   
    9.27000       5.0000   
    9.27500       5.0000   
    9.28000       5.0000   
    9.28500       5.0000   
    9.29000       5.0000   
    9.29500       5.0000   
    9.30000       5.0000   
    9.30500       5.0000   
    9.31000       5.0000   
    9.31500       5.0000   
    9.32000       5.0000   
    9.32500       5.0000   
    9.33000       5.0000   
    9.33500       5.0000   
    9.34000       5.0000   
    9.34500       5.0000   
    9.35000       5.0000   
    9.35500       5.0000   
    9.36000       5.0000   
    9.36500       5.0000   
    9.37000       5.0000   
    9.37500       5.0000   
    9.38000       5.0000   
    9.38500       5.0000   
    9.39000       5.0000   
    9.39500       5.0000   
    9.40000       5.0000   
    9.40500       5.0000   
    9.41000       5.0000   
    9.41500       5.0000   
    9.42000       5.0000   
    9.42500       5.0000   
    9.43000       5.0000   
    9.43500       5.0000   
    9.44000       5.0000   
    9.44500       5.0000   
    9.45000       5.0000   
    9.45500       5.0000   
    9.46000       5.0000   
    9.46500       5.0000   
    9.47000       5.0000   
    9.47500       5.0000   
    9.48000       5.0000   
    9.48500       5.0000   
    9.49000       5.0000   
    9.49500       5.0000   
    9.50000       5.0000   
    9.50500       5.0000   
    9.51000       5.0000   
    9.51500       5.0000   
    9.52000       5.0000   
    9.52500       5.0000   
    9.53000       5.0000   
    9.53500       5.0000   
    9.54000       5.0000   
    9.54500       5.0000   
    9.55000       5.0000   
    9.55500       5.0000   
    9.56000       5.0000   
    9.56500       5.0000   
    9.57000       5.0000   
    9.57500       5.0000   
    9.58000       5.0000   
    9.58500       5.0000   
    9.59000       5.0000   
    9.59500       5.0000   
    9.60000       5.0000   
    9.60500       5.0000   
    9.61000       5.0000   
    9.61500       5.0000   
    9.62000       5.0000   
    9.62500       5.0000   
    9.63000       5.0000   
    9.63500       5.0000   
    9.64000       5.0000   
    9.64500       5.0000   
    9.65000       5.0000   
    9.65500       5.0000   
    9.66000       5.0000   
    9.66500       5.0000   
    9.67000       5.0000   
    9.67500       5.0000   
    9.68000       5.0000   
    9.68500       5.0000   
    9.69000       5.0000   
    9.69500       5.0000   
    9.70000       5.0000   
    9.70500       5.0000   
    9.71000       5.0000   
    9.71500       5.0000   
    9.72000       5.0000   
    9.72500       5.0000   
    9.73000       5.0000   
    9.73500       5.0000   
    9.74000       5.0000   
    9.74500       5.0000   
    9.75000       5.0000   
    9.75500       5.0000   
    9.76000       5.0000   
    9.76500       5.0000   
    9.77000       5.0000   
    9.77500       5.0000   
    9.78000       5.0000   
    9.78500       5.0000   
    9.79000       5.0000   
    9.79500       5.0000   
    9.80000       5.0000   
    9.80500       5.0000   
    9.81000       5.0000   
    9.81500       5.0000   
    9.82000       5.0000   
    9.82500       5.0000   
    9.83000       5.0000   
    9.83500       5.0000   
    9.84000       5.0000   
    9.84500       5.0000   
    9.85000       5.0000   
    9.85500       5.0000   
    9.86000       5.0000   
    9.86500       5.0000   
    9.87000       5.0000   
    9.87500       5.0000   
    9.88000       5.0000   
    9.88500       5.0000   
    9.89000       5.0000   
    9.89500       5.0000   
    9.90000       5.0000   
    9.90500       5.0000   
    9.91000       5.0000   
    9.91500       5.0000   
    9.92000       5.0000   
    9.92500       5.0000   
    9.93000       5.0000   
    9.93500       5.0000   
    9.94000       5.0000   
    9.94500       5.0000   
    9.95000       5.0000   
    9.95500       5.0000   
    9.96000       5.0000   
    9.96500       5.0000   
    9.97000       5.0000   
    9.97500       5.0000   
    9.98000       5.0000   
    9.98500       5.0000   
    9.99000       5.0000   
    9.99500       5.0000   
   10.00000       5.0000   
   10.00500       5.0000   
   10.01000       4.9999   
   10.01500       4.9999   
   10.02000       4.9999   
   10.02500       4.9999   
   10.03000       4.9999   
   10.03500       4.9999   
   10.04000       4.9999   
   10.04500       4.9999   
   10.05000       4.9999   
   10.05500       4.9999   
   10.06000       4.9999   
   10.06500       4.9999   
   10.07000       4.9999   
   10.07500       4.9999   
   10.08000       4.9999   
   10.08500       4.9999   
   10.09000       4.9999   
   10.09500       4.9999   
   10.10000       4.9999   
   10.10500       4.9999   
   10.11000       4.9999   
   10.11500       4.9999   
   10.12000       4.9999   
   10.12500       4.9999   
   10.13000       4.9999   
   10.13500       4.9999   
   10.14000       4.9999   
   10.14500       4.9999   
   10.15000       4.9999   
   10.15500       4.9999   
   10.16000       4.9999   
   10.16500       4.9999   
   10.17000       4.9999   
   10.17500       4.9999   
   10.18000       4.9999   
   10.18500       4.9999   
   10.19000       4.9999   
   10.19500       4.9999   
   10.20000       4.9999   
   10.20500       4.9999   
   10.21000       4.9999   
   10.21500       4.9999   
   10.22000       4.9999   
   10.22500       4.9999   
   10.23000       4.9999   
   10.23500       4.9999   
   10.24000       4.9999   
   10.24500       4.9999   
   10.25000       4.9999   
   10.25500       4.9999   
   10.26000       4.9999   
   10.26500       4.9999   
   10.27000       4.9999   
   10.27500       4.9999   
   10.28000       4.9999   
   10.28500       4.9999   
   10.29000       4.9999   
   10.29500       4.9999   
   10.30000       4.9999   
   10.30500       4.9999   
   10.31000       4.9999   
   10.31500       4.9999   
   10.32000       4.9999   
   10.32500       4.9999   
   10.33000       4.9999   
   10.33500       4.9999   
   10.34000       4.9999   
   10.34500       4.9999   
   10.35000       4.9999   
   10.35500       4.9999   
   10.36000       4.9999   
   10.36500       4.9999   
   10.37000       4.9999   
   10.37500       4.9999   
   10.38000       4.9999   
   10.38500       4.9999   
   10.39000       4.9999   
   10.39500       4.9999   
   10.40000       4.9999   
   10.40500       4.9999   
   10.41000       4.9999   
   10.41500       4.9999   
   10.42000       4.9999   
   10.42500       4.9999   
   10.43000       4.9999   
   10.43500       4.9999   
   10.44000       4.9999   
   10.44500       4.9999   
   10.45000       4.9999   
   10.45500       4.9999   
   10.46000       4.9999   
   10.46500       4.9999   
   10.47000       4.9999   
   10.47500       4.9999   
   10.48000       4.9999   
   10.48500       4.9999   
   10.49000       4.9999   
   10.49500       4.9999   
   10.50000       4.9999   
   10.50500       4.9999   
   10.51000       4.9999   
   10.51500       4.9999   
   10.52000       4.9999   
   10.52500       4.9999   
   10.53000       4.9999   
   10.53500       4.9999   
   10.54000       4.9999   
   10.54500       4.9999   
   10.55000       4.9999   
   10.55500       4.9999   
   10.56000       4.9999   
   10.56500       4.9999   
   10.57000       4.9999   
   10.57500       4.9999   
   10.58000       4.9999   
   10.58500       4.9999   
   10.59000       4.9999   
   10.59500       4.9999   
   10.60000       4.9999   
   10.60500       4.9999   
   10.61000       4.9999   
   10.61500       4.9999   
   10.62000       4.9999   
   10.62500       4.9999   
   10.63000       4.9999   
   10.63500       4.9999   
   10.64000       4.9999   
   10.64500       4.9999   
   10.65000       4.9999   
   10.65500       4.9999   
   10.66000       4.9999   
   10.66500       4.9999   
   10.67000       4.9999   
   10.67500       4.9999   
   10.68000       4.9999   
   10.68500       4.9999   
   10.69000       4.9999   
   10.69500       4.9999   
   10.70000       4.9999   
   10.70500       4.9999   
   10.71000       4.9999   
   10.71500       4.9999   
   10.72000       4.9999   
   10.72500       4.9999   
   10.73000       4.9999   
   10.73500       4.9999   
   10.74000       4.9999   
   10.74500       4.9999   
   10.75000       4.9999   
   10.75500       4.9999   
   10.76000       4.9999   
   10.76500       4.9999   
   10.77000       4.9999   
   10.77500       4.9999   
   10.78000       4.9999   
   10.78500       4.9999   
   10.79000       4.9999   
   10.79500       4.9999   
   10.80000       4.9999   
   10.80500       4.9999   
   10.81000       4.9999   
   10.81500       4.9999   
   10.82000       4.9999   
   10.82500       4.9999   
   10.83000       4.9999   
   10.83500       4.9999   
   10.84000       4.9999   
   10.84500       4.9999   
   10.85000       4.9999   
   10.85500       4.9999   
   10.86000       4.9999   
   10.86500       4.9999   
   10.87000       4.9999   
   10.87500       4.9999   
   10.88000       4.9999   
   10.88500       4.9999   
   10.89000       4.9999   
   10.89500       4.9999   
   10.90000       4.9999   
   10.90500       4.9999   
   10.91000       4.9999   
   10.91500       4.9999   
   10.92000       4.9999   
   10.92500       4.9999   
   10.93000       4.9999   
   10.93500       4.9999   
   10.94000       4.9999   
   10.94500       4.9999   
   10.95000       4.9999   
   10.95500       4.9999   
   10.96000       4.9999   
   10.96500       4.9999   
   10.97000       4.9999   
   10.97500       4.9999   
   10.98000       4.9999   
   10.98500       4.9999   
   10.99000       4.9999   
   10.99500       4.9999   
   11.00000       4.9999   
   11.00500       4.9999   
   11.01000       4.9999   
   11.01500       4.9999   
   11.02000       4.9999   
   11.02500       4.9999   
   11.03000       4.9999   
   11.03500       4.9999   
   11.04000       4.9999   
   11.04500       4.9999   
   11.05000       4.9999   
   11.05500       4.9999   
   11.06000       4.9999   
   11.06500       4.9999   
   11.07000       4.9999   
   11.07500       4.9999   
   11.08000       4.9999   
   11.08500       4.9999   
   11.09000       4.9999   
   11.09500       4.9999   
   11.10000       4.9999   
   11.10500       4.9999   
   11.11000       4.9999   
   11.11500       4.9999   
   11.12000       4.9999   
   11.12500       4.9999   
   11.13000       4.9999   
   11.13500       4.9999   
   11.14000       4.9999   
   11.14500       4.9999   
   11.15000       4.9999   
   11.15500       4.9999   
   11.16000       4.9999   
   11.16500       4.9999   
   11.17000       4.9999   
   11.17500       4.9999   
   11.18000       4.9999   
   11.18500       4.9999   
   11.19000       4.9999   
   11.19500       4.9999   
   11.20000       4.9999   
   11.20500       4.9999   
   11.21000       4.9999   
   11.21500       4.9999   
   11.22000       4.9999   
   11.22500       4.9999   
   11.23000       4.9999   
   11.23500       4.9999   
   11.24000       4.9999   
   11.24500       4.9999   
   11.25000       4.9999   
   11.25500       4.9999   
   11.26000       4.9999   
   11.26500       4.9999   
   11.27000       4.9999   
   11.27500       4.9999   
   11.28000       4.9999   
   11.28500       4.9999   
   11.29000       4.9999   
   11.29500       4.9999   
   11.30000       4.9999   
   11.30500       4.9999   
   11.31000       4.9999   
   11.31500       4.9999   
   11.32000       4.9999   
   11.32500       4.9999   
   11.33000       4.9999   
   11.33500       4.9999   
   11.34000       4.9999   
   11.34500       4.9999   
   11.35000       4.9999   
   11.35500       4.9999   
   11.36000       4.9999   
   11.36500       4.9999   
   11.37000       4.9999   
   11.37500       4.9999   
   11.38000       4.9999   
   11.38500       4.9999   
   11.39000       4.9999   
   11.39500       4.9999   
   11.40000       4.9999   
   11.40500       4.9999   
   11.41000       4.9999   
   11.41500       4.9999   
   11.42000       4.9999   
   11.42500       4.9999   
   11.43000       4.9999   
   11.43500       4.9999   
   11.44000       4.9999   
   11.44500       4.9999   
   11.45000       4.9999   
   11.45500       4.9999   
   11.46000       4.9999   
   11.46500       4.9999   
   11.47000       4.9999   
   11.47500       4.9999   
   11.48000       4.9999   
   11.48500       4.9999   
   11.49000       4.9999   
   11.49500       4.9999   
   11.50000       4.9999   
   11.50500       4.9999   
   11.51000       4.9999   
   11.51500       4.9999   
   11.52000       4.9999   
   11.52500       4.9999   
   11.53000       4.9999   
   11.53500       4.9999   
   11.54000       4.9999   
   11.54500       4.9999   
   11.55000       4.9999   
   11.55500       4.9999   
   11.56000       4.9999   
   11.56500       4.9999   
   11.57000       4.9999   
   11.57500       4.9999   
   11.58000       4.9999   
   11.58500       4.9999   
   11.59000       4.9999   
   11.59500       4.9999   
   11.60000       4.9999   
   11.60500       4.9999   
   11.61000       4.9999   
   11.61500       4.9999   
   11.62000       4.9999   
   11.62500       4.9999   
   11.63000       4.9999   
   11.63500       4.9999   
   11.64000       4.9999   
   11.64500       4.9999   
   11.65000       4.9999   
   11.65500       4.9999   
   11.66000       4.9999   
   11.66500       4.9999   
   11.67000       4.9999   
   11.67500       4.9999   
   11.68000       4.9999   
   11.68500       4.9999   
   11.69000       4.9999   
   11.69500       4.9998   
   11.70000       4.9998   
   11.70500       4.9998   
   11.71000       4.9998   
   11.71500       4.9998   
   11.72000       4.9998   
   11.72500       4.9998   
   11.73000       4.9998   
   11.73500       4.9998   
   11.74000       4.9998   
   11.74500       4.9998   
   11.75000       4.9998   
   11.75500       4.9998   
   11.76000       4.9998   
   11.76500       4.9998   
   11.77000       4.9998   
   11.77500       4.9998   
   11.78000       4.9998   
   11.78500       4.9998   
   11.79000       4.9998   
   11.79500       4.9998   
   11.80000       4.9998   
   11.80500       4.9998   
   11.81000       4.9998   
   11.81500       4.9998   
   11.82000       4.9998   
   11.82500       4.9998   
   11.83000       4.9998   
   11.83500       4.9998   
   11.84000       4.9998   
   11.84500       4.9998   
   11.85000       4.9998   
   11.85500       4.9998   
   11.86000       4.9998   
   11.86500       4.9998   
   11.87000       4.9998   
   11.87500       4.9998   
   11.88000       4.9998   
   11.88500       4.9998   
   11.89000       4.9998   
   11.89500       4.9998   
   11.90000       4.9998   
   11.90500       4.9998   
   11.91000       4.9998   
   11.91500       4.9998   
   11.92000       4.9998   
   11.92500       4.9998   
   11.93000       4.9998   
   11.93500       4.9998   
   11.94000       4.9998   
   11.94500       4.9998   
   11.95000       4.9998   
   11.95500       4.9998   
   11.96000       4.9998   
   11.96500       4.9998   
   11.97000       4.9998   
   11.97500       4.9998   
   11.98000       4.9998   
   11.98500       4.9998   
   11.99000       4.9998   
   11.99500       4.9998   
   12.00000       4.9998   
   12.00500       4.9998   
   12.01000       4.9998   
   12.01500       4.9998   
   12.02000       4.9998   
   12.02500       4.9998   
[...]
   56.75000     -60.1035   
   56.75500     -60.1218   
   56.76000     -60.1402   
   56.76500     -60.1585   
   56.77000     -60.1769   
   56.77500     -60.1952   
   56.78000     -60.2135   
   56.78500     -60.2319   
   56.79000     -60.2502   
   56.79500     -60.2686   
   56.80000     -60.2869   
   56.80500     -60.3053   
   56.81000     -60.3236   
   56.81500     -60.3420   
   56.82000     -60.3603   
   56.82500     -60.3787   
   56.83000     -60.3970   
   56.83500     -60.4154   
   56.84000     -60.4338   
   56.84500     -60.4521   
   56.85000     -60.4705   
   56.85500     -60.4888   
   56.86000     -60.5072   
   56.86500     -60.5255   
   56.87000     -60.5439   
   56.87500     -60.5622   
   56.88000     -60.5806   
   56.88500     -60.5990   
   56.89000     -60.6173   
   56.89500     -60.6357   
   56.90000     -60.6541   
   56.90500     -60.6724   
   56.91000     -60.6908   
   56.91500     -60.7091   
   56.92000     -60.7275   
   56.92500     -60.7459   
   56.93000     -60.7642   
   56.93500     -60.7826   
   56.94000     -60.8010   
   56.94500     -60.8193   
   56.95000     -60.8377   
   56.95500     -60.8561   
   56.96000     -60.8745   
   56.96500     -60.8928   
   56.97000     -60.9112   
   56.97500     -60.9296   
   56.98000     -60.9479   
   56.98500     -60.9663   
   56.99000     -60.9847   
   56.99500     -61.0031   
   57.00000     -61.0214   
   57.00500     -61.0398   
   57.01000     -61.0582   
   57.01500     -61.0766   
   57.02000     -61.0949   
   57.02500     -61.1133   
   57.03000     -61.1317   
   57.03500     -61.1501   
   57.04000     -61.1685   
   57.04500     -61.1869   
   57.05000     -61.2052   
   57.05500     -61.2236   
   57.06000     -61.2420   
   57.06500     -61.2604   
   57.07000     -61.2788   
   57.07500     -61.2972   
   57.08000     -61.3155   
   57.08500     -61.3339   
   57.09000     -61.3523   
   57.09500     -61.3707   
   57.10000     -61.3891   
   57.10500     -61.4075   
   57.11000     -61.4259   
   57.11500     -61.4443   
   57.12000     -61.4627   
   57.12500     -61.4810   
   57.13000     -61.4994   
   57.13500     -61.5178   
   57.14000     -61.5362   
   57.14500     -61.5546   
   57.15000     -61.5730   
   57.15500     -61.5914   
   57.16000     -61.6098   
   57.16500     -61.6282   
   57.17000     -61.6466   
   57.17500     -61.6650   
   57.18000     -61.6834   
   57.18500     -61.7018   
   57.19000     -61.7202   
   57.19500     -61.7386   
   57.20000     -61.7570   
   57.20500     -61.7754   
   57.21000     -61.7938   
   57.21500     -61.8122   
   57.22000     -61.8306   
   57.22500     -61.8490   
   57.23000     -61.8674   
   57.23500     -61.8858   
   57.24000     -61.9042   
   57.24500     -61.9226   
   57.25000     -61.9411   
   57.25500     -61.9595   
   57.26000     -61.9779   
   57.26500     -61.9963   
   57.27000     -62.0147   
   57.27500     -62.0331   
   57.28000     -62.0515   
   57.28500     -62.0699   
   57.29000     -62.0883   
   57.29500     -62.1068   
   57.30000     -62.1252   
   57.30500     -62.1436   
   57.31000     -62.1620   
   57.31500     -62.1804   
   57.32000     -62.1988   
   57.32500     -62.2173   
   57.33000     -62.2357   
   57.33500     -62.2541   
   57.34000     -62.2725   
   57.34500     -62.2909   
   57.35000     -62.3094   
   57.35500     -62.3278   
   57.36000     -62.3462   
   57.36500     -62.3646   
   57.37000     -62.3830   
   57.37500     -62.4015   
   57.38000     -62.4199   
   57.38500     -62.4383   
   57.39000     -62.4568   
   57.39500     -62.4752   
   57.40000     -62.4936   
   57.40500     -62.5120   
   57.41000     -62.5305   
   57.41500     -62.5489   
   57.42000     -62.5673   
   57.42500     -62.5858   
   57.43000     -62.6042   
   57.43500     -62.6226   
   57.44000     -62.6410   
   57.44500     -62.6595   
   57.45000     -62.6779   
   57.45500     -62.6964   
   57.46000     -62.7148   
   57.46500     -62.7332   
   57.47000     -62.7517   
   57.47500     -62.7701   
   57.48000     -62.7885   
   57.48500     -62.8070   
   57.49000     -62.8254   
   57.49500     -62.8438   
   57.50000     -62.8623   
   57.50500     -62.8807   
   57.51000     -62.8992   
   57.51500     -62.9176   
   57.52000     -62.9361   
   57.52500     -62.9545   
   57.53000     -62.9729   
   57.53500     -62.9914   
   57.54000     -63.0098   
   57.54500     -63.0283   
   57.55000     -63.0467   
   57.55500     -63.0652   
   57.56000     -63.0836   
   57.56500     -63.1021   
   57.57000     -63.1205   
   57.57500     -63.1390   
   57.58000     -63.1574   
   57.58500     -63.1759   
   57.59000     -63.1943   
   57.59500     -63.2128   
   57.60000     -63.2312   
   57.60500     -63.2497   
   57.61000     -63.2681   
   57.61500     -63.2866   
   57.62000     -63.3050   
   57.62500     -63.3235   
   57.63000     -63.3420   
   57.63500     -63.3604   
   57.64000     -63.3789   
   57.64500     -63.3973   
   57.65000     -63.4158   
   57.65500     -63.4343   
   57.66000     -63.4527   
   57.66500     -63.4712   
   57.67000     -63.4896   
   57.67500     -63.5081   
   57.68000     -63.5266   
   57.68500     -63.5450   
   57.69000     -63.5635   
   57.69500     -63.5820   
   57.70000     -63.6004   
   57.70500     -63.6189   
   57.71000     -63.6373   
   57.71500     -63.6558   
   57.72000     -63.6743   
   57.72500     -63.6928   
   57.73000     -63.7112   
   57.73500     -63.7297   
   57.74000     -63.7482   
   57.74500     -63.7666   
   57.75000     -63.7851   
   57.75500     -63.8036   
   57.76000     -63.8220   
   57.76500     -63.8405   
   57.77000     -63.8590   
   57.77500     -63.8775   
   57.78000     -63.8959   
   57.78500     -63.9144   
   57.79000     -63.9329   
   57.79500     -63.9514   
   57.80000     -63.9699   
   57.80500     -63.9883   
   57.81000     -64.0068   
   57.81500     -64.0253   
   57.82000     -64.0438   
   57.82500     -64.0623   
   57.83000     -64.0807   
   57.83500     -64.0992   
   57.84000     -64.1177   
   57.84500     -64.1362   
   57.85000     -64.1547   
   57.85500     -64.1731   
   57.86000     -64.1916   
   57.86500     -64.2101   
   57.87000     -64.2286   
   57.87500     -64.2471   
   57.88000     -64.2656   
   57.88500     -64.2841   
   57.89000     -64.3026   
   57.89500     -64.3210   
   57.90000     -64.3395   
   57.90500     -64.3580   
   57.91000     -64.3765   
   57.91500     -64.3950   
   57.92000     -64.4135   
   57.92500     -64.4320   
   57.93000     -64.4505   
   57.93500     -64.4690   
   57.94000     -64.4875   
   57.94500     -64.5060   
   57.95000     -64.5245   
   57.95500     -64.5430   
   57.96000     -64.5615   
   57.96500     -64.5800   
   57.97000     -64.5985   
   57.97500     -64.6170   
   57.98000     -64.6355   
   57.98500     -64.6540   
   57.99000     -64.6725   
   57.99500     -64.6910   
   58.00000     -64.7095   
   58.00500     -64.7280   
   58.01000     -64.7465   
   58.01500     -64.7650   
   58.02000     -64.7835   
   58.02500     -64.8020   
   58.03000     -64.8205   
   58.03500     -64.8390   
   58.04000     -64.8575   
   58.04500     -64.8760   
   58.05000     -64.8945   
   58.05500     -64.9130   
   58.06000     -64.9315   
   58.06500     -64.9500   
   58.07000     -64.9686   
   58.07500     -64.9871   
   58.08000     -65.0056   
   58.08500     -65.0241   
   58.09000     -65.0426   
   58.09500     -65.0611   
   58.10000     -65.0796   
   58.10500     -65.0981   
   58.11000     -65.1167   
   58.11500     -65.1352   
   58.12000     -65.1537   
   58.12500     -65.1722   
   58.13000     -65.1907   
   58.13500     -65.2092   
   58.14000     -65.2278   
   58.14500     -65.2463   
   58.15000     -65.2648   
   58.15500     -65.2833   
   58.16000     -65.3019   
   58.16500     -65.3204   
   58.17000     -65.3389   
   58.17500     -65.3574   
   58.18000     -65.3759   
   58.18500     -65.3945   
   58.19000     -65.4130   
   58.19500     -65.4315   
   58.20000     -65.4500   
   58.20500     -65.4686   
   58.21000     -65.4871   
   58.21500     -65.5056   
   58.22000     -65.5242   
   58.22500     -65.5427   
   58.23000     -65.5612   
   58.23500     -65.5797   
   58.24000     -65.5983   
   58.24500     -65.6168   
   58.25000     -65.6353   
   58.25500     -65.6539   
   58.26000     -65.6724   
   58.26500     -65.6909   
   58.27000     -65.7095   
   58.27500     -65.7280   
   58.28000     -65.7465   
   58.28500     -65.7651   
   58.29000     -65.7836   
   58.29500     -65.8022   
   58.30000     -65.8207   
   58.30500     -65.8392   
   58.31000     -65.8578   
   58.31500     -65.8763   
   58.32000     -65.8948   
   58.32500     -65.9134   
   58.33000     -65.9319   
   58.33500     -65.9505   
   58.34000     -65.9690   
   58.34500     -65.9876   
   58.35000     -66.0061   
   58.35500     -66.0246   
   58.36000     -66.0432   
   58.36500     -66.0617   
   58.37000     -66.0803   
   58.37500     -66.0988   
   58.38000     -66.1174   
   58.38500     -66.1359   
   58.39000     -66.1545   
   58.39500     -66.1730   
   58.40000     -66.1916   
   58.40500     -66.2101   
   58.41000     -66.2287   
   58.41500     -66.2472   
   58.42000     -66.2658   
   58.42500     -66.2843   
   58.43000     -66.3029   
   58.43500     -66.3214   
   58.44000     -66.3400   
   58.44500     -66.3585   
   58.45000     -66.3771   
   58.45500     -66.3957   
   58.46000     -66.4142   
   58.46500     -66.4328   
   58.47000     -66.4513   
   58.47500     -66.4699   
   58.48000     -66.4884   
   58.48500     -66.5070   
   58.49000     -66.5256   
   58.49500     -66.5441   
   58.50000     -66.5627   
   58.50500     -66.5813   
   58.51000     -66.5998   
   58.51500     -66.6184   
   58.52000     -66.6369   
   58.52500     -66.6555   
   58.53000     -66.6741   
   58.53500     -66.6926   
   58.54000     -66.7112   
   58.54500     -66.7298   
   58.55000     -66.7483   
   58.55500     -66.7669   
   58.56000     -66.7855   
   58.56500     -66.8040   
   58.57000     -66.8226   
   58.57500     -66.8412   
   58.58000     -66.8598   
   58.58500     -66.8783   
   58.59000     -66.8969   
   58.59500     -66.9155   
   58.60000     -66.9340   
   58.60500     -66.9526   
   58.61000     -66.9712   
   58.61500     -66.9898   
   58.62000     -67.0083   
   58.62500     -67.0269   
   58.63000     -67.0455   
   58.63500     -67.0641   
   58.64000     -67.0826   
   58.64500     -67.1012   
   58.65000     -67.1198   
   58.65500     -67.1384   
   58.66000     -67.1570   
   58.66500     -67.1755   
   58.67000     -67.1941   
   58.67500     -67.2127   
   58.68000     -67.2313   
   58.68500     -67.2499   
   58.69000     -67.2685   
   58.69500     -67.2870   
   58.70000     -67.3056   
   58.70500     -67.3242   
   58.71000     -67.3428   
   58.71500     -67.3614   
   58.72000     -67.3800   
   58.72500     -67.3986   
   58.73000     -67.4171   
   58.73500     -67.4357   
   58.74000     -67.4543   
   58.74500     -67.4729   
   58.75000     -67.4915   
   58.75500     -67.5101   
   58.76000     -67.5287   
   58.76500     -67.5473   
   58.77000     -67.5659   
   58.77500     -67.5845   
   58.78000     -67.6030   
   58.78500     -67.6216   
   58.79000     -67.6402   
   58.79500     -67.6588   
   58.80000     -67.6774   
   58.80500     -67.6960   
   58.81000     -67.7146   
   58.81500     -67.7332   
   58.82000     -67.7518   
   58.82500     -67.7704   
   58.83000     -67.7890   
   58.83500     -67.8076   
   58.84000     -67.8262   
   58.84500     -67.8448   
   58.85000     -67.8634   
   58.85500     -67.8820   
   58.86000     -67.9006   
   58.86500     -67.9192   
   58.87000     -67.9378   
   58.87500     -67.9564   
   58.88000     -67.9750   
   58.88500     -67.9936   
   58.89000     -68.0122   
   58.89500     -68.0309   
   58.90000     -68.0495   
   58.90500     -68.0681   
   58.91000     -68.0867   
   58.91500     -68.1053   
   58.92000     -68.1239   
   58.92500     -68.1425   
   58.93000     -68.1611   
   58.93500     -68.1797   
   58.94000     -68.1983   
   58.94500     -68.2169   
   58.95000     -68.2356   
   58.95500     -68.2542   
   58.96000     -68.2728   
   58.96500     -68.2914   
   58.97000     -68.3100   
   58.97500     -68.3286   
   58.98000     -68.3472   
   58.98500     -68.3659   
   58.99000     -68.3845   
   58.99500     -68.4031   
   59.00000     -68.4217   
   59.00500     -68.4403   
   59.01000     -68.4590   
   59.01500     -68.4776   
   59.02000     -68.4962   
   59.02500     -68.5148   
   59.03000     -68.5334   
   59.03500     -68.5521   
   59.04000     -68.5707   
   59.04500     -68.5893   
   59.05000     -68.6079   
   59.05500     -68.6266   
   59.06000     -68.6452   
   59.06500     -68.6638   
   59.07000     -68.6824   
   59.07500     -68.7011   
   59.08000     -68.7197   
   59.08500     -68.7383   
   59.09000     -68.7569   
   59.09500     -68.7756   
   59.10000     -68.7942   
   59.10500     -68.8128   
   59.11000     -68.8315   
   59.11500     -68.8501   
   59.12000     -68.8687   
   59.12500     -68.8874   
   59.13000     -68.9060   
   59.13500     -68.9246   
   59.14000     -68.9433   
   59.14500     -68.9619   
   59.15000     -68.9805   
   59.15500     -68.9992   
   59.16000     -69.0178   
   59.16500     -69.0364   
   59.17000     -69.0551   
   59.17500     -69.0737   
   59.18000     -69.0923   
   59.18500     -69.1110   
   59.19000     -69.1296   
   59.19500     -69.1483   
   59.20000     -69.1669   
   59.20500     -69.1855   
   59.21000     -69.2042   
   59.21500     -69.2228   
   59.22000     -69.2415   
   59.22500     -69.2601   
   59.23000     -69.2788   
   59.23500     -69.2974   
   59.24000     -69.3160   
   59.24500     -69.3347   
   59.25000     -69.3533   
   59.25500     -69.3720   
   59.26000     -69.3906   
   59.26500     -69.4093   
   59.27000     -69.4279   
   59.27500     -69.4466   
   59.28000     -69.4652   
   59.28500     -69.4839   
   59.29000     -69.5025   
   59.29500     -69.5212   
   59.30000     -69.5398   
   59.30500     -69.5585   
   59.31000     -69.5771   
   59.31500     -69.5958   
   59.32000     -69.6144   
   59.32500     -69.6331   
   59.33000     -69.6517   
   59.33500     -69.6704   
   59.34000     -69.6890   
   59.34500     -69.7077   
   59.35000     -69.7264   
   59.35500     -69.7450   
   59.36000     -69.7637   
   59.36500     -69.7823   
   59.37000     -69.8010   
   59.37500     -69.8196   
   59.38000     -69.8383   
   59.38500     -69.8570   
   59.39000     -69.8756   
   59.39500     -69.8943   
   59.40000     -69.9130   
   59.40500     -69.9316   
   59.41000     -69.9503   
   59.41500     -69.9689   
   59.42000     -69.9876   
   59.42500     -70.0063   
   59.43000     -70.0249   
   59.43500     -70.0436   
   59.44000     -70.0623   
   59.44500     -70.0809   
   59.45000     -70.0996   
   59.45500     -70.1183   
   59.46000     -70.1369   
   59.46500     -70.1556   
   59.47000     -70.1743   
   59.47500     -70.1929   
   59.48000     -70.2116   
   59.48500     -70.2303   
   59.49000     -70.2490   
   59.49500     -70.2676   
   59.50000     -70.2863   
   59.50500     -70.3050   
   59.51000     -70.3236   
   59.51500     -70.3423   
   59.52000     -70.3610   
   59.52500     -70.3797   
   59.53000     -70.3984   
   59.53500     -70.4170   
   59.54000     -70.4357   
   59.54500     -70.4544   
   59.55000     -70.4731   
   59.55500     -70.4917   
   59.56000     -70.5104   
   59.56500     -70.5291   
   59.57000     -70.5478   
   59.57500     -70.5665   
   59.58000     -70.5851   
   59.58500     -70.6038   
   59.59000     -70.6225   
   59.59500     -70.6412   
   59.60000     -70.6599   
   59.60500     -70.6786   
   59.61000     -70.6972   
   59.61500     -70.7159   
   59.62000     -70.7346   
   59.62500     -70.7533   
   59.63000     -70.7720   
   59.63500     -70.7907   
   59.64000     -70.8094   
   59.64500     -70.8280   
   59.65000     -70.8467   
   59.65500     -70.8654   
   59.66000     -70.8841   
   59.66500     -70.9028   
   59.67000     -70.9215   
   59.67500     -70.9402   
   59.68000     -70.9589   
   59.68500     -70.9776   
   59.69000     -70.9963   
   59.69500     -71.0149   
   59.70000     -71.0336   
   59.70500     -71.0523   
   59.71000     -71.0710   
   59.71500     -71.0897   
   59.72000     -71.1084   
   59.72500     -71.1271   
   59.73000     -71.1458   
   59.73500     -71.1645   
   59.74000     -71.1832   
   59.74500     -71.2019   
   59.75000     -71.2206   
   59.75500     -71.2393   
   59.76000     -71.2580   
   59.76500     -71.2767   
   59.77000     -71.2954   
   59.77500     -71.3141   
   59.78000     -71.3328   
   59.78500     -71.3515   
   59.79000     -71.3702   
   59.79500     -71.3889   
   59.80000     -71.4076   
   59.80500     -71.4263   
   59.81000     -71.4450   
   59.81500     -71.4637   
   59.82000     -71.4825   
   59.82500     -71.5012   
   59.83000     -71.5199   
   59.83500     -71.5386   
   59.84000     -71.5573   
   59.84500     -71.5760   
   59.85000     -71.5947   
   59.85500     -71.6134   
   59.86000     -71.6321   
   59.86500     -71.6508   
   59.87000     -71.6695   
   59.87500     -71.6883   
   59.88000     -71.7070   
   59.88500     -71.7257   
   59.89000     -71.7444   
   59.89500     -71.7631   
   59.90000     -71.7818   
   59.90500     -71.8005   
   59.91000     -71.8193   
   59.91500     -71.8380   
   59.92000     -71.8567   
   59.92500     -71.8754   
   59.93000     -71.8941   
   59.93500     -71.9128   
   59.94000     -71.9316   
   59.94500     -71.9503   
   59.95000     -71.9690   
   59.95500     -71.9877   
   59.96000     -72.0064   
   59.96500     -72.0252   
   59.97000     -72.0439   
   59.97500     -72.0626   
   59.98000     -72.0813   
   59.98500     -72.1000   
   59.99000     -72.1188   
   59.99500     -72.1375   
   60.00000     -72.1562   
y

          ***** job concluded
1****** HSPICE -- C-2009.03-SP1 32-BIT (May 25 2009) winnt ******               
 ******  
 ** super cell 1 max current

  ******  job statistics summary tnom=  25.000 temp=  25.000 *****

  ******  HSPICE Threads Information  ******
  Command Line Threads Count                  :     1
  Available CPU Count                         :     8
  Actual Model Evaluation(Load) Threads Count :     1
  Actual Solver Threads Count                 :     1


  ******  Circuit Statistics  ******
  # nodes       =       7 # elements   =      16
  # resistors   =       6 # capacitors =       0 # inductors   =       0
  # mutual_inds =       0 # vccs       =       0 # vcvs        =       0
  # cccs        =       0 # ccvs       =       0 # volt_srcs   =       1
  # curr_srcs   =       3 # diodes     =       6 # bjts        =       0
  # jfets       =       0 # mosfets    =       0 # U elements  =       0
  # T elements  =       0 # W elements =       0 # B elements  =       0
  # S elements  =       0 # P elements =       0 # va device   =       0


  ******  Runtime Statistics (seconds)  ******

  analysis           time    # points   tot. iter  conv.iter
  op point           0.00           1           0
  dc sweep           0.38       12001       24098
  readin             0.07
  errchk             0.01
  setup              0.02
  output             0.04


           total memory used          353  kbytes
           total cpu time            0.55 seconds
           total elapsed time        0.60 seconds
           job started at     23:00:18 06/23/2015
           job ended   at     23:00:18 06/23/2015


 Init: hspice initialization file: C:\synopsys\Hspice_C-2009.03-SP1\hspice.ini
  lic: Release hspice token(s) 
