 ****** HSPICE -- C-2009.03-SP1 32-BIT (May 25 2009) winnt ******               
  Copyright (C) 2009 Synopsys, Inc. All Rights Reserved.                        
  Unpublished-rights reserved under US copyright laws.
  This program is protected by law and is subject to the 
  terms and conditions of the license agreement from Synopsys.
  Use of this program is your acceptance to be bound by the 
  license agreement. HSPICE is the trademark of Synopsys, Inc.
  Input File: C:\Users\Administrator\Desktop\MultiLevel\ncModel.sp              
  lic:  
  lic: FLEXlm: v8.5b 
  lic: USER:   Administrator        HOSTNAME: WIN-HBGPFB5Q4D3 
  lic: HOSTID: "002268384615 005056c00001 005056c00008" PID:      6296 
  lic: Using FLEXlm license file: 
  lic: C:\synopsys\hspice_2009-03.lic 
  lic: Checkout 1 hspice 
  lic: License/Maintenance for hspice will expire on 31-dec-2020/2007.9 
  lic: NODE LOCKED license on hostid "002268384615 005056c00001 005056c00008" 
  lic:   
 Init: read install configuration file: C:\synopsys\Hspice_C-2009.03-SP1\meta.cfg
 Init: hspice initialization file: C:\synopsys\Hspice_C-2009.03-SP1\hspice.ini




1****** HSPICE -- C-2009.03-SP1 32-BIT (May 25 2009) winnt ******               
 ******  
 ** super cell 1 max current

  ******  diode model parameters tnom=  25.000 temp=  25.000 *****
 ********************************************************
 *** common model parameters model name:   0:diode1  ****
 ********************************************************

     names  values   units     names  values   units     names  values   units
     -----  ------   -----     -----  ------   -----     -----  ------   -----

   1*** dc breakdown parameters ***
       vb=   0.    volts        ibv=   1.00m amps   

   2*** parasitic resistance parameters ***
       rs=   0.    ohms   

   3*** capacitance parameters ***
       fc= 500.00m              fcs= 500.00m                m= 500.00m        
     mjsw= 330.00m               pb= 800.00m volts        php= 800.00m volts  
       tt=   0.    secs         cjo=   0.    f/area       cjp=   0.    f/pj   

   4*** temperature effect parameters ***
     tlev=   0.               tlevc=   0.                 tcv=   0.    v/deg k
      trs=   0.    /deg         cta=   0.    /deg         ctp=   0.    /deg   
      xti=   3.00            xtitun=   3.00               keg=   1.00         
       eg=   1.11  ev          gap1= 702.00u  ev/deg     gap2=   1.11k  deg   
     ttt1=   0.    /deg        ttt2=   0.    /deg2        tm1=   0.    /deg   
      tm2=   0.    /deg2        tpb=   0.    v/deg k     tphp=   0.    v/deg k
     tref=  25.00   deg c 

   5*** noise parameters ***
       kf=   0.                  af=   1.00         

   ***  level   1  model parameters  ***

    level=   1.00                is= 904.65n amps         jsw=   0.    amps   
        n=  40.71               nbv=  40.71                ik=   0.    amp    
     area=   1.00                pj=   0.                 ikr=   0.    amp    
    expli=   0.    amps      explir=   0.    amps        jtun=   0.    amps   
   jtunsw=   0.    amps        ntun=  30.00         
  
 ********************************************************
 *** common model parameters model name:   0:diode2  ****
 ********************************************************

     names  values   units     names  values   units     names  values   units
     -----  ------   -----     -----  ------   -----     -----  ------   -----

   1*** dc breakdown parameters ***
       vb=   0.    volts        ibv=   1.00m amps   

   2*** parasitic resistance parameters ***
       rs=   0.    ohms   

   3*** capacitance parameters ***
       fc= 500.00m              fcs= 500.00m                m= 500.00m        
     mjsw= 330.00m               pb= 800.00m volts        php= 800.00m volts  
       tt=   0.    secs         cjo=   0.    f/area       cjp=   0.    f/pj   

   4*** temperature effect parameters ***
     tlev=   0.               tlevc=   0.                 tcv=   0.    v/deg k
      trs=   0.    /deg         cta=   0.    /deg         ctp=   0.    /deg   
      xti=   3.00            xtitun=   3.00               keg=   1.00         
       eg=   1.11  ev          gap1= 702.00u  ev/deg     gap2=   1.11k  deg   
     ttt1=   0.    /deg        ttt2=   0.    /deg2        tm1=   0.    /deg   
      tm2=   0.    /deg2        tpb=   0.    v/deg k     tphp=   0.    v/deg k
     tref=  25.00   deg c 

   5*** noise parameters ***
       kf=   0.                  af=   1.00         

   ***  level   1  model parameters  ***

    level=   1.00                is=   9.05u amps         jsw=   0.    amps   
        n=   1.36               nbv=   1.36                ik=   0.    amp    
     area=   1.00                pj=   0.                 ikr=   0.    amp    
    expli=   0.    amps      explir=   0.    amps        jtun=   0.    amps   
   jtunsw=   0.    amps        ntun=  30.00         
  
 ********************************************************
 *** common model parameters model name:   0:diode3  ****
 ********************************************************

     names  values   units     names  values   units     names  values   units
     -----  ------   -----     -----  ------   -----     -----  ------   -----

   1*** dc breakdown parameters ***
       vb=   0.    volts        ibv=   1.00m amps   

   2*** parasitic resistance parameters ***
       rs=   0.    ohms   

   3*** capacitance parameters ***
       fc= 500.00m              fcs= 500.00m                m= 500.00m        
     mjsw= 330.00m               pb= 800.00m volts        php= 800.00m volts  
       tt=   0.    secs         cjo=   0.    f/area       cjp=   0.    f/pj   

   4*** temperature effect parameters ***
     tlev=   0.               tlevc=   0.                 tcv=   0.    v/deg k
      trs=   0.    /deg         cta=   0.    /deg         ctp=   0.    /deg   
      xti=   3.00            xtitun=   3.00               keg=   1.00         
       eg=   1.11  ev          gap1= 702.00u  ev/deg     gap2=   1.11k  deg   
     ttt1=   0.    /deg        ttt2=   0.    /deg2        tm1=   0.    /deg   
      tm2=   0.    /deg2        tpb=   0.    v/deg k     tphp=   0.    v/deg k
     tref=  25.00   deg c 

   5*** noise parameters ***
       kf=   0.                  af=   1.00         

   ***  level   1  model parameters  ***

    level=   1.00                is= 284.48n amps         jsw=   0.    amps   
        n=  12.80               nbv=  12.80                ik=   0.    amp    
     area=   1.00                pj=   0.                 ikr=   0.    amp    
    expli=   0.    amps      explir=   0.    amps        jtun=   0.    amps   
   jtunsw=   0.    amps        ntun=  30.00         
  
 ********************************************************
 *** common model parameters model name:   0:diode4  ****
 ********************************************************

     names  values   units     names  values   units     names  values   units
     -----  ------   -----     -----  ------   -----     -----  ------   -----

   1*** dc breakdown parameters ***
       vb=   0.    volts        ibv=   1.00m amps   

   2*** parasitic resistance parameters ***
       rs=   0.    ohms   

   3*** capacitance parameters ***
       fc= 500.00m              fcs= 500.00m                m= 500.00m        
     mjsw= 330.00m               pb= 800.00m volts        php= 800.00m volts  
       tt=   0.    secs         cjo=   0.    f/area       cjp=   0.    f/pj   

   4*** temperature effect parameters ***
     tlev=   0.               tlevc=   0.                 tcv=   0.    v/deg k
      trs=   0.    /deg         cta=   0.    /deg         ctp=   0.    /deg   
      xti=   3.00            xtitun=   3.00               keg=   1.00         
       eg=   1.11  ev          gap1= 702.00u  ev/deg     gap2=   1.11k  deg   
     ttt1=   0.    /deg        ttt2=   0.    /deg2        tm1=   0.    /deg   
      tm2=   0.    /deg2        tpb=   0.    v/deg k     tphp=   0.    v/deg k
     tref=  25.00   deg c 

   5*** noise parameters ***
       kf=   0.                  af=   1.00         

   ***  level   1  model parameters  ***

    level=   1.00                is=   2.84u amps         jsw=   0.    amps   
        n= 426.72m              nbv= 426.72m               ik=   0.    amp    
     area=   1.00                pj=   0.                 ikr=   0.    amp    
    expli=   0.    amps      explir=   0.    amps        jtun=   0.    amps   
   jtunsw=   0.    amps        ntun=  30.00         
  
 ********************************************************
 *** common model parameters model name:   0:diode5  ****
 ********************************************************

     names  values   units     names  values   units     names  values   units
     -----  ------   -----     -----  ------   -----     -----  ------   -----

   1*** dc breakdown parameters ***
       vb=   0.    volts        ibv=   1.00m amps   

   2*** parasitic resistance parameters ***
       rs=   0.    ohms   

   3*** capacitance parameters ***
       fc= 500.00m              fcs= 500.00m                m= 500.00m        
     mjsw= 330.00m               pb= 800.00m volts        php= 800.00m volts  
       tt=   0.    secs         cjo=   0.    f/area       cjp=   0.    f/pj   

   4*** temperature effect parameters ***
     tlev=   0.               tlevc=   0.                 tcv=   0.    v/deg k
      trs=   0.    /deg         cta=   0.    /deg         ctp=   0.    /deg   
      xti=   3.00            xtitun=   3.00               keg=   1.00         
       eg=   1.11  ev          gap1= 702.00u  ev/deg     gap2=   1.11k  deg   
     ttt1=   0.    /deg        ttt2=   0.    /deg2        tm1=   0.    /deg   
      tm2=   0.    /deg2        tpb=   0.    v/deg k     tphp=   0.    v/deg k
     tref=  25.00   deg c 

   5*** noise parameters ***
       kf=   0.                  af=   1.00         

   ***  level   1  model parameters  ***

    level=   1.00                is= 810.87n amps         jsw=   0.    amps   
        n=  36.49               nbv=  36.49                ik=   0.    amp    
     area=   1.00                pj=   0.                 ikr=   0.    amp    
    expli=   0.    amps      explir=   0.    amps        jtun=   0.    amps   
   jtunsw=   0.    amps        ntun=  30.00         
  
 ********************************************************
 *** common model parameters model name:   0:diode6  ****
 ********************************************************

     names  values   units     names  values   units     names  values   units
     -----  ------   -----     -----  ------   -----     -----  ------   -----

   1*** dc breakdown parameters ***
       vb=   0.    volts        ibv=   1.00m amps   

   2*** parasitic resistance parameters ***
       rs=   0.    ohms   

   3*** capacitance parameters ***
       fc= 500.00m              fcs= 500.00m                m= 500.00m        
     mjsw= 330.00m               pb= 800.00m volts        php= 800.00m volts  
       tt=   0.    secs         cjo=   0.    f/area       cjp=   0.    f/pj   

   4*** temperature effect parameters ***
     tlev=   0.               tlevc=   0.                 tcv=   0.    v/deg k
      trs=   0.    /deg         cta=   0.    /deg         ctp=   0.    /deg   
      xti=   3.00            xtitun=   3.00               keg=   1.00         
       eg=   1.11  ev          gap1= 702.00u  ev/deg     gap2=   1.11k  deg   
     ttt1=   0.    /deg        ttt2=   0.    /deg2        tm1=   0.    /deg   
      tm2=   0.    /deg2        tpb=   0.    v/deg k     tphp=   0.    v/deg k
     tref=  25.00   deg c 

   5*** noise parameters ***
       kf=   0.                  af=   1.00         

   ***  level   1  model parameters  ***

    level=   1.00                is=   8.11u amps         jsw=   0.    amps   
        n=   1.22               nbv=   1.22                ik=   0.    amp    
     area=   1.00                pj=   0.                 ikr=   0.    amp    
    expli=   0.    amps      explir=   0.    amps        jtun=   0.    amps   
   jtunsw=   0.    amps        ntun=  30.00         
  
 **warning**  attempt to reference undefined node     0:out             
  in the definition of v(out,0)
   branch - output ignored

 
      
 *****************************************************************
 ******  option summary
 ******
 runlvl  = 3         bypass  = 2         
 ******  
 ** super cell 1 max current

  ******  dc transfer curves tnom=  25.000 temp=  25.000 *****
x

        volt    current    
                    vds    
    0.            5.0000   
    5.00000m      5.0000   
   10.00000m      5.0000   
   15.00000m      5.0000   
   20.00000m      5.0000   
   25.00000m      5.0000   
   30.00000m      5.0000   
   35.00000m      5.0000   
   40.00000m      5.0000   
   45.00000m      5.0000   
   50.00000m      5.0000   
   55.00000m      5.0000   
   60.00000m      5.0000   
   65.00000m      5.0000   
   70.00000m      5.0000   
   75.00000m      5.0000   
   80.00000m      5.0000   
   85.00000m      5.0000   
   90.00000m      5.0000   
   95.00000m      5.0000   
  100.00000m      5.0000   
  105.00000m      5.0000   
  110.00000m      5.0000   
  115.00000m      5.0000   
  120.00000m      5.0000   
  125.00000m      5.0000   
  130.00000m      5.0000   
  135.00000m      5.0000   
  140.00000m      5.0000   
  145.00000m      5.0000   
  150.00000m      5.0000   
  155.00000m      5.0000   
  160.00000m      5.0000   
  165.00000m      5.0000   
  170.00000m      5.0000   
  175.00000m      5.0000   
  180.00000m      5.0000   
  185.00000m      5.0000   
  190.00000m      5.0000   
  195.00000m      5.0000   
  200.00000m      5.0000   
  205.00000m      5.0000   
  210.00000m      5.0000   
  215.00000m      5.0000   
  220.00000m      5.0000   
  225.00000m      5.0000   
  230.00000m      5.0000   
  235.00000m      5.0000   
  240.00000m      5.0000   
  245.00000m      5.0000   
  250.00000m      5.0000   
  255.00000m      5.0000   
  260.00000m      5.0000   
  265.00000m      5.0000   
  270.00000m      5.0000   
  275.00000m      5.0000   
  280.00000m      5.0000   
  285.00000m      5.0000   
  290.00000m      5.0000   
  295.00000m      5.0000   
  300.00000m      5.0000   
  305.00000m      5.0000   
  310.00000m      5.0000   
  315.00000m      5.0000   
  320.00000m      5.0000   
  325.00000m      5.0000   
  330.00000m      5.0000   
  335.00000m      5.0000   
  340.00000m      5.0000   
  345.00000m      5.0000   
  350.00000m      5.0000   
  355.00000m      5.0000   
  360.00000m      5.0000   
  365.00000m      5.0000   
  370.00000m      5.0000   
  375.00000m      5.0000   
  380.00000m      5.0000   
  385.00000m      5.0000   
  390.00000m      5.0000   
  395.00000m      5.0000   
  400.00000m      5.0000   
  405.00000m      5.0000   
  410.00000m      5.0000   
  415.00000m      5.0000   
  420.00000m      5.0000   
  425.00000m      5.0000   
  430.00000m      5.0000   
  435.00000m      5.0000   
  440.00000m      5.0000   
  445.00000m      5.0000   
  450.00000m      5.0000   
  455.00000m      5.0000   
  460.00000m      5.0000   
  465.00000m      5.0000   
  470.00000m      5.0000   
  475.00000m      5.0000   
  480.00000m      5.0000   
  485.00000m      5.0000   
  490.00000m      5.0000   
  495.00000m      5.0000   
  500.00000m      5.0000   
  505.00000m      5.0000   
  510.00000m      5.0000   
  515.00000m      5.0000   
  520.00000m      5.0000   
  525.00000m      5.0000   
  530.00000m      5.0000   
  535.00000m      5.0000   
  540.00000m      5.0000   
  545.00000m      5.0000   
  550.00000m      5.0000   
  555.00000m      5.0000   
  560.00000m      5.0000   
  565.00000m      5.0000   
  570.00000m      5.0000   
  575.00000m      5.0000   
  580.00000m      5.0000   
  585.00000m      5.0000   
  590.00000m      5.0000   
  595.00000m      5.0000   
  600.00000m      5.0000   
  605.00000m      5.0000   
  610.00000m      5.0000   
  615.00000m      5.0000   
  620.00000m      5.0000   
  625.00000m      5.0000   
  630.00000m      5.0000   
  635.00000m      5.0000   
  640.00000m      5.0000   
  645.00000m      5.0000   
  650.00000m      5.0000   
  655.00000m      5.0000   
  660.00000m      5.0000   
  665.00000m      5.0000   
  670.00000m      5.0000   
  675.00000m      5.0000   
  680.00000m      5.0000   
  685.00000m      5.0000   
  690.00000m      5.0000   
  695.00000m      5.0000   
  700.00000m      5.0000   
  705.00000m      5.0000   
  710.00000m      5.0000   
  715.00000m      5.0000   
  720.00000m      5.0000   
  725.00000m      5.0000   
  730.00000m      5.0000   
  735.00000m      5.0000   
  740.00000m      5.0000   
  745.00000m      5.0000   
  750.00000m      5.0000   
  755.00000m      5.0000   
  760.00000m      5.0000   
  765.00000m      5.0000   
  770.00000m      5.0000   
  775.00000m      5.0000   
  780.00000m      5.0000   
  785.00000m      5.0000   
  790.00000m      5.0000   
  795.00000m      5.0000   
  800.00000m      5.0000   
  805.00000m      5.0000   
  810.00000m      5.0000   
  815.00000m      5.0000   
  820.00000m      5.0000   
  825.00000m      5.0000   
  830.00000m      5.0000   
  835.00000m      5.0000   
  840.00000m      5.0000   
  845.00000m      5.0000   
  850.00000m      5.0000   
  855.00000m      5.0000   
  860.00000m      5.0000   
  865.00000m      5.0000   
  870.00000m      5.0000   
  875.00000m      5.0000   
  880.00000m      5.0000   
  885.00000m      5.0000   
  890.00000m      5.0000   
  895.00000m      5.0000   
  900.00000m      5.0000   
  905.00000m      5.0000   
  910.00000m      5.0000   
  915.00000m      5.0000   
  920.00000m      5.0000   
  925.00000m      5.0000   
  930.00000m      5.0000   
  935.00000m      5.0000   
  940.00000m      5.0000   
  945.00000m      5.0000   
  950.00000m      5.0000   
  955.00000m      5.0000   
  960.00000m      5.0000   
  965.00000m      5.0000   
  970.00000m      5.0000   
  975.00000m      5.0000   
  980.00000m      5.0000   
  985.00000m      5.0000   
  990.00000m      5.0000   
  995.00000m      5.0000   
    1.00000       5.0000   
    1.00500       5.0000   
    1.01000       5.0000   
    1.01500       5.0000   
    1.02000       5.0000   
    1.02500       5.0000   
    1.03000       5.0000   
    1.03500       5.0000   
    1.04000       5.0000   
    1.04500       5.0000   
    1.05000       5.0000   
    1.05500       5.0000   
    1.06000       5.0000   
    1.06500       5.0000   
    1.07000       5.0000   
    1.07500       5.0000   
    1.08000       5.0000   
    1.08500       5.0000   
    1.09000       5.0000   
    1.09500       5.0000   
    1.10000       5.0000   
    1.10500       5.0000   
    1.11000       5.0000   
    1.11500       5.0000   
    1.12000       5.0000   
    1.12500       5.0000   
    1.13000       5.0000   
    1.13500       5.0000   
    1.14000       5.0000   
    1.14500       5.0000   
    1.15000       5.0000   
    1.15500       5.0000   
    1.16000       5.0000   
    1.16500       5.0000   
    1.17000       5.0000   
    1.17500       5.0000   
    1.18000       5.0000   
    1.18500       5.0000   
    1.19000       5.0000   
    1.19500       5.0000   
    1.20000       5.0000   
    1.20500       5.0000   
    1.21000       5.0000   
    1.21500       5.0000   
    1.22000       5.0000   
    1.22500       5.0000   
    1.23000       5.0000   
    1.23500       5.0000   
    1.24000       5.0000   
    1.24500       5.0000   
    1.25000       5.0000   
    1.25500       5.0000   
    1.26000       5.0000   
    1.26500       5.0000   
    1.27000       5.0000   
    1.27500       5.0000   
    1.28000       5.0000   
    1.28500       5.0000   
    1.29000       5.0000   
    1.29500       5.0000   
    1.30000       5.0000   
    1.30500       5.0000   
    1.31000       5.0000   
    1.31500       5.0000   
    1.32000       5.0000   
    1.32500       5.0000   
    1.33000       5.0000   
    1.33500       5.0000   
    1.34000       5.0000   
    1.34500       5.0000   
    1.35000       5.0000   
    1.35500       5.0000   
    1.36000       5.0000   
    1.36500       5.0000   
    1.37000       5.0000   
    1.37500       5.0000   
    1.38000       5.0000   
    1.38500       5.0000   
    1.39000       5.0000   
    1.39500       5.0000   
    1.40000       5.0000   
    1.40500       5.0000   
    1.41000       5.0000   
    1.41500       5.0000   
    1.42000       5.0000   
    1.42500       5.0000   
    1.43000       5.0000   
    1.43500       5.0000   
    1.44000       5.0000   
    1.44500       5.0000   
    1.45000       5.0000   
    1.45500       5.0000   
    1.46000       5.0000   
    1.46500       5.0000   
    1.47000       5.0000   
    1.47500       5.0000   
    1.48000       5.0000   
    1.48500       5.0000   
    1.49000       5.0000   
    1.49500       5.0000   
    1.50000       5.0000   
    1.50500       5.0000   
    1.51000       5.0000   
    1.51500       5.0000   
    1.52000       5.0000   
    1.52500       5.0000   
    1.53000       5.0000   
    1.53500       5.0000   
    1.54000       5.0000   
    1.54500       5.0000   
    1.55000       5.0000   
    1.55500       5.0000   
    1.56000       5.0000   
    1.56500       5.0000   
    1.57000       5.0000   
    1.57500       5.0000   
    1.58000       5.0000   
    1.58500       5.0000   
    1.59000       5.0000   
    1.59500       5.0000   
    1.60000       5.0000   
    1.60500       5.0000   
    1.61000       5.0000   
    1.61500       5.0000   
    1.62000       5.0000   
    1.62500       5.0000   
    1.63000       5.0000   
    1.63500       5.0000   
    1.64000       5.0000   
    1.64500       5.0000   
    1.65000       5.0000   
    1.65500       5.0000   
    1.66000       5.0000   
    1.66500       5.0000   
    1.67000       5.0000   
    1.67500       5.0000   
    1.68000       5.0000   
    1.68500       5.0000   
    1.69000       5.0000   
    1.69500       5.0000   
    1.70000       5.0000   
    1.70500       5.0000   
    1.71000       5.0000   
    1.71500       5.0000   
    1.72000       5.0000   
    1.72500       5.0000   
    1.73000       5.0000   
    1.73500       5.0000   
    1.74000       5.0000   
    1.74500       5.0000   
    1.75000       5.0000   
    1.75500       5.0000   
    1.76000       5.0000   
    1.76500       5.0000   
    1.77000       5.0000   
    1.77500       5.0000   
    1.78000       5.0000   
    1.78500       5.0000   
    1.79000       5.0000   
    1.79500       5.0000   
    1.80000       5.0000   
    1.80500       5.0000   
    1.81000       5.0000   
    1.81500       5.0000   
    1.82000       5.0000   
    1.82500       5.0000   
    1.83000       5.0000   
    1.83500       5.0000   
    1.84000       5.0000   
    1.84500       5.0000   
    1.85000       5.0000   
    1.85500       5.0000   
    1.86000       5.0000   
    1.86500       5.0000   
    1.87000       5.0000   
    1.87500       5.0000   
    1.88000       5.0000   
    1.88500       5.0000   
    1.89000       5.0000   
    1.89500       5.0000   
    1.90000       5.0000   
    1.90500       5.0000   
    1.91000       5.0000   
    1.91500       5.0000   
    1.92000       5.0000   
    1.92500       5.0000   
    1.93000       5.0000   
    1.93500       5.0000   
    1.94000       5.0000   
    1.94500       5.0000   
    1.95000       5.0000   
    1.95500       5.0000   
    1.96000       5.0000   
    1.96500       5.0000   
    1.97000       5.0000   
    1.97500       5.0000   
    1.98000       5.0000   
    1.98500       5.0000   
    1.99000       5.0000   
    1.99500       5.0000   
    2.00000       5.0000   
    2.00500       5.0000   
    2.01000       5.0000   
    2.01500       5.0000   
    2.02000       5.0000   
    2.02500       5.0000   
    2.03000       5.0000   
    2.03500       5.0000   
    2.04000       5.0000   
    2.04500       5.0000   
    2.05000       5.0000   
    2.05500       5.0000   
    2.06000       5.0000   
    2.06500       5.0000   
    2.07000       5.0000   
    2.07500       5.0000   
    2.08000       5.0000   
    2.08500       5.0000   
    2.09000       5.0000   
    2.09500       5.0000   
    2.10000       5.0000   
    2.10500       5.0000   
    2.11000       5.0000   
    2.11500       5.0000   
    2.12000       5.0000   
    2.12500       5.0000   
    2.13000       5.0000   
    2.13500       4.9999   
    2.14000       4.9999   
    2.14500       4.9999   
    2.15000       4.9999   
    2.15500       4.9999   
    2.16000       4.9999   
    2.16500       4.9999   
    2.17000       4.9999   
    2.17500       4.9999   
    2.18000       4.9999   
    2.18500       4.9999   
    2.19000       4.9999   
    2.19500       4.9999   
    2.20000       4.9999   
    2.20500       4.9999   
    2.21000       4.9999   
    2.21500       4.9999   
    2.22000       4.9999   
    2.22500       4.9999   
    2.23000       4.9999   
    2.23500       4.9999   
    2.24000       4.9999   
    2.24500       4.9999   
    2.25000       4.9999   
    2.25500       4.9999   
    2.26000       4.9999   
    2.26500       4.9999   
    2.27000       4.9999   
    2.27500       4.9999   
    2.28000       4.9999   
    2.28500       4.9999   
    2.29000       4.9999   
    2.29500       4.9999   
    2.30000       4.9999   
    2.30500       4.9999   
    2.31000       4.9999   
    2.31500       4.9999   
    2.32000       4.9999   
    2.32500       4.9999   
    2.33000       4.9999   
    2.33500       4.9999   
    2.34000       4.9999   
    2.34500       4.9999   
    2.35000       4.9999   
    2.35500       4.9999   
    2.36000       4.9999   
    2.36500       4.9999   
    2.37000       4.9999   
    2.37500       4.9999   
    2.38000       4.9999   
    2.38500       4.9999   
    2.39000       4.9999   
    2.39500       4.9999   
    2.40000       4.9999   
    2.40500       4.9999   
    2.41000       4.9999   
    2.41500       4.9999   
    2.42000       4.9999   
    2.42500       4.9999   
    2.43000       4.9999   
    2.43500       4.9999   
    2.44000       4.9999   
    2.44500       4.9999   
    2.45000       4.9999   
    2.45500       4.9999   
    2.46000       4.9999   
    2.46500       4.9999   
    2.47000       4.9999   
    2.47500       4.9999   
    2.48000       4.9999   
    2.48500       4.9999   
    2.49000       4.9999   
    2.49500       4.9999   
    2.50000       4.9999   
    2.50500       4.9999   
    2.51000       4.9999   
    2.51500       4.9999   
    2.52000       4.9999   
    2.52500       4.9999   
    2.53000       4.9999   
    2.53500       4.9999   
    2.54000       4.9999   
    2.54500       4.9999   
    2.55000       4.9999   
    2.55500       4.9999   
    2.56000       4.9999   
    2.56500       4.9999   
    2.57000       4.9999   
    2.57500       4.9999   
    2.58000       4.9999   
    2.58500       4.9999   
    2.59000       4.9999   
    2.59500       4.9999   
    2.60000       4.9999   
    2.60500       4.9999   
    2.61000       4.9999   
    2.61500       4.9999   
    2.62000       4.9999   
    2.62500       4.9999   
    2.63000       4.9999   
    2.63500       4.9999   
    2.64000       4.9999   
    2.64500       4.9999   
    2.65000       4.9999   
    2.65500       4.9999   
    2.66000       4.9999   
    2.66500       4.9999   
    2.67000       4.9999   
    2.67500       4.9999   
    2.68000       4.9999   
    2.68500       4.9999   
    2.69000       4.9999   
    2.69500       4.9999   
    2.70000       4.9999   
    2.70500       4.9999   
    2.71000       4.9999   
    2.71500       4.9999   
    2.72000       4.9999   
    2.72500       4.9999   
    2.73000       4.9999   
    2.73500       4.9999   
    2.74000       4.9999   
    2.74500       4.9999   
    2.75000       4.9999   
    2.75500       4.9999   
    2.76000       4.9999   
    2.76500       4.9999   
    2.77000       4.9999   
    2.77500       4.9999   
    2.78000       4.9999   
    2.78500       4.9999   
    2.79000       4.9999   
    2.79500       4.9999   
    2.80000       4.9999   
    2.80500       4.9999   
    2.81000       4.9999   
    2.81500       4.9999   
    2.82000       4.9999   
    2.82500       4.9999   
    2.83000       4.9999   
    2.83500       4.9999   
    2.84000       4.9999   
    2.84500       4.9999   
    2.85000       4.9999   
    2.85500       4.9999   
    2.86000       4.9999   
    2.86500       4.9999   
    2.87000       4.9999   
    2.87500       4.9999   
    2.88000       4.9999   
    2.88500       4.9999   
    2.89000       4.9999   
    2.89500       4.9999   
    2.90000       4.9999   
    2.90500       4.9999   
    2.91000       4.9999   
    2.91500       4.9999   
    2.92000       4.9999   
    2.92500       4.9999   
    2.93000       4.9999   
    2.93500       4.9999   
    2.94000       4.9999   
    2.94500       4.9999   
    2.95000       4.9999   
    2.95500       4.9999   
    2.96000       4.9999   
    2.96500       4.9999   
    2.97000       4.9999   
    2.97500       4.9999   
    2.98000       4.9999   
    2.98500       4.9999   
    2.99000       4.9999   
    2.99500       4.9999   
    3.00000       4.9999   
    3.00500       4.9999   
    3.01000       4.9999   
    3.01500       4.9999   
    3.02000       4.9999   
    3.02500       4.9999   
    3.03000       4.9999   
    3.03500       4.9999   
    3.04000       4.9999   
    3.04500       4.9999   
    3.05000       4.9999   
    3.05500       4.9999   
    3.06000       4.9999   
    3.06500       4.9999   
    3.07000       4.9999   
    3.07500       4.9999   
    3.08000       4.9999   
    3.08500       4.9999   
    3.09000       4.9999   
    3.09500       4.9999   
    3.10000       4.9999   
    3.10500       4.9999   
    3.11000       4.9999   
    3.11500       4.9999   
    3.12000       4.9999   
    3.12500       4.9999   
    3.13000       4.9999   
    3.13500       4.9999   
    3.14000       4.9999   
    3.14500       4.9999   
    3.15000       4.9999   
    3.15500       4.9999   
    3.16000       4.9999   
    3.16500       4.9999   
    3.17000       4.9999   
    3.17500       4.9999   
    3.18000       4.9999   
    3.18500       4.9999   
    3.19000       4.9999   
    3.19500       4.9999   
    3.20000       4.9999   
    3.20500       4.9999   
    3.21000       4.9999   
    3.21500       4.9999   
    3.22000       4.9999   
    3.22500       4.9999   
    3.23000       4.9999   
    3.23500       4.9999   
    3.24000       4.9999   
    3.24500       4.9999   
    3.25000       4.9999   
    3.25500       4.9999   
    3.26000       4.9999   
    3.26500       4.9999   
    3.27000       4.9999   
    3.27500       4.9999   
    3.28000       4.9999   
    3.28500       4.9999   
    3.29000       4.9999   
    3.29500       4.9999   
    3.30000       4.9999   
    3.30500       4.9999   
    3.31000       4.9999   
    3.31500       4.9999   
    3.32000       4.9999   
    3.32500       4.9999   
    3.33000       4.9999   
    3.33500       4.9999   
    3.34000       4.9999   
    3.34500       4.9999   
    3.35000       4.9999   
    3.35500       4.9999   
    3.36000       4.9999   
    3.36500       4.9999   
    3.37000       4.9999   
    3.37500       4.9999   
    3.38000       4.9999   
    3.38500       4.9999   
    3.39000       4.9999   
    3.39500       4.9999   
    3.40000       4.9999   
    3.40500       4.9999   
    3.41000       4.9999   
    3.41500       4.9999   
    3.42000       4.9999   
    3.42500       4.9999   
    3.43000       4.9999   
    3.43500       4.9999   
    3.44000       4.9999   
    3.44500       4.9999   
    3.45000       4.9999   
    3.45500       4.9999   
    3.46000       4.9999   
    3.46500       4.9999   
    3.47000       4.9999   
    3.47500       4.9999   
    3.48000       4.9999   
    3.48500       4.9999   
    3.49000       4.9999   
    3.49500       4.9999   
    3.50000       4.9999   
    3.50500       4.9999   
    3.51000       4.9999   
    3.51500       4.9999   
    3.52000       4.9999   
    3.52500       4.9999   
    3.53000       4.9999   
    3.53500       4.9999   
    3.54000       4.9999   
    3.54500       4.9999   
    3.55000       4.9999   
    3.55500       4.9999   
    3.56000       4.9999   
    3.56500       4.9999   
    3.57000       4.9999   
    3.57500       4.9999   
    3.58000       4.9999   
    3.58500       4.9999   
    3.59000       4.9999   
    3.59500       4.9999   
    3.60000       4.9999   
    3.60500       4.9999   
    3.61000       4.9999   
    3.61500       4.9999   
    3.62000       4.9999   
    3.62500       4.9999   
    3.63000       4.9999   
    3.63500       4.9999   
    3.64000       4.9999   
    3.64500       4.9999   
    3.65000       4.9999   
    3.65500       4.9999   
    3.66000       4.9999   
    3.66500       4.9999   
    3.67000       4.9999   
    3.67500       4.9999   
    3.68000       4.9999   
    3.68500       4.9999   
    3.69000       4.9999   
    3.69500       4.9999   
    3.70000       4.9999   
    3.70500       4.9999   
    3.71000       4.9999   
    3.71500       4.9999   
    3.72000       4.9999   
    3.72500       4.9999   
    3.73000       4.9999   
    3.73500       4.9999   
    3.74000       4.9999   
    3.74500       4.9999   
    3.75000       4.9999   
    3.75500       4.9999   
    3.76000       4.9999   
    3.76500       4.9999   
    3.77000       4.9999   
    3.77500       4.9999   
    3.78000       4.9999   
    3.78500       4.9999   
    3.79000       4.9999   
    3.79500       4.9999   
    3.80000       4.9999   
    3.80500       4.9999   
    3.81000       4.9999   
    3.81500       4.9999   
    3.82000       4.9999   
    3.82500       4.9999   
    3.83000       4.9999   
    3.83500       4.9999   
    3.84000       4.9999   
    3.84500       4.9999   
    3.85000       4.9999   
    3.85500       4.9999   
    3.86000       4.9999   
    3.86500       4.9999   
    3.87000       4.9999   
    3.87500       4.9999   
    3.88000       4.9999   
    3.88500       4.9999   
    3.89000       4.9999   
    3.89500       4.9999   
    3.90000       4.9999   
    3.90500       4.9999   
    3.91000       4.9999   
    3.91500       4.9999   
    3.92000       4.9999   
    3.92500       4.9999   
    3.93000       4.9999   
    3.93500       4.9999   
    3.94000       4.9999   
    3.94500       4.9999   
    3.95000       4.9999   
    3.95500       4.9999   
    3.96000       4.9999   
    3.96500       4.9999   
    3.97000       4.9999   
    3.97500       4.9999   
    3.98000       4.9999   
    3.98500       4.9999   
    3.99000       4.9999   
    3.99500       4.9999   
    4.00000       4.9999   
    4.00500       4.9999   
    4.01000       4.9999   
    4.01500       4.9999   
    4.02000       4.9999   
    4.02500       4.9999   
    4.03000       4.9999   
    4.03500       4.9999   
    4.04000       4.9999   
    4.04500       4.9999   
    4.05000       4.9999   
    4.05500       4.9999   
    4.06000       4.9999   
    4.06500       4.9999   
    4.07000       4.9999   
    4.07500       4.9999   
    4.08000       4.9999   
    4.08500       4.9999   
    4.09000       4.9999   
    4.09500       4.9999   
    4.10000       4.9999   
    4.10500       4.9999   
    4.11000       4.9999   
    4.11500       4.9999   
    4.12000       4.9999   
    4.12500       4.9999   
    4.13000       4.9999   
    4.13500       4.9999   
    4.14000       4.9999   
    4.14500       4.9999   
    4.15000       4.9999   
    4.15500       4.9999   
    4.16000       4.9999   
    4.16500       4.9999   
    4.17000       4.9999   
    4.17500       4.9999   
    4.18000       4.9999   
    4.18500       4.9999   
    4.19000       4.9999   
    4.19500       4.9999   
    4.20000       4.9999   
    4.20500       4.9999   
    4.21000       4.9999   
    4.21500       4.9999   
    4.22000       4.9999   
    4.22500       4.9999   
    4.23000       4.9999   
    4.23500       4.9999   
    4.24000       4.9999   
    4.24500       4.9999   
    4.25000       4.9999   
    4.25500       4.9999   
    4.26000       4.9999   
    4.26500       4.9999   
    4.27000       4.9999   
    4.27500       4.9999   
    4.28000       4.9999   
    4.28500       4.9999   
    4.29000       4.9999   
    4.29500       4.9999   
    4.30000       4.9999   
    4.30500       4.9999   
    4.31000       4.9999   
    4.31500       4.9999   
    4.32000       4.9999   
    4.32500       4.9999   
    4.33000       4.9999   
    4.33500       4.9999   
    4.34000       4.9999   
    4.34500       4.9999   
    4.35000       4.9999   
    4.35500       4.9999   
    4.36000       4.9999   
    4.36500       4.9999   
    4.37000       4.9999   
    4.37500       4.9999   
    4.38000       4.9999   
    4.38500       4.9999   
    4.39000       4.9999   
    4.39500       4.9999   
    4.40000       4.9999   
    4.40500       4.9999   
    4.41000       4.9999   
    4.41500       4.9999   
    4.42000       4.9999   
    4.42500       4.9999   
    4.43000       4.9999   
    4.43500       4.9999   
    4.44000       4.9999   
    4.44500       4.9999   
    4.45000       4.9999   
    4.45500       4.9999   
    4.46000       4.9999   
    4.46500       4.9999   
    4.47000       4.9999   
    4.47500       4.9999   
    4.48000       4.9999   
    4.48500       4.9999   
    4.49000       4.9999   
    4.49500       4.9999   
    4.50000       4.9999   
    4.50500       4.9999   
    4.51000       4.9999   
    4.51500       4.9999   
    4.52000       4.9999   
    4.52500       4.9999   
    4.53000       4.9999   
    4.53500       4.9999   
    4.54000       4.9999   
    4.54500       4.9999   
    4.55000       4.9999   
    4.55500       4.9999   
    4.56000       4.9999   
    4.56500       4.9999   
    4.57000       4.9999   
    4.57500       4.9999   
    4.58000       4.9999   
    4.58500       4.9999   
    4.59000       4.9999   
    4.59500       4.9999   
    4.60000       4.9999   
    4.60500       4.9999   
    4.61000       4.9999   
    4.61500       4.9999   
    4.62000       4.9999   
    4.62500       4.9999   
    4.63000       4.9999   
    4.63500       4.9999   
    4.64000       4.9999   
    4.64500       4.9999   
    4.65000       4.9999   
    4.65500       4.9999   
    4.66000       4.9999   
    4.66500       4.9999   
    4.67000       4.9999   
    4.67500       4.9999   
    4.68000       4.9999   
    4.68500       4.9999   
    4.69000       4.9999   
    4.69500       4.9999   
    4.70000       4.9999   
    4.70500       4.9999   
    4.71000       4.9999   
    4.71500       4.9999   
    4.72000       4.9999   
    4.72500       4.9999   
    4.73000       4.9999   
    4.73500       4.9999   
    4.74000       4.9999   
    4.74500       4.9999   
    4.75000       4.9999   
    4.75500       4.9999   
    4.76000       4.9999   
    4.76500       4.9999   
    4.77000       4.9999   
    4.77500       4.9999   
    4.78000       4.9999   
    4.78500       4.9999   
    4.79000       4.9999   
    4.79500       4.9999   
    4.80000       4.9999   
    4.80500       4.9999   
    4.81000       4.9999   
    4.81500       4.9999   
    4.82000       4.9999   
    4.82500       4.9999   
    4.83000       4.9999   
    4.83500       4.9999   
    4.84000       4.9999   
    4.84500       4.9999   
    4.85000       4.9999   
    4.85500       4.9999   
    4.86000       4.9999   
    4.86500       4.9999   
    4.87000       4.9999   
    4.87500       4.9999   
    4.88000       4.9999   
    4.88500       4.9999   
    4.89000       4.9999   
    4.89500       4.9999   
    4.90000       4.9999   
    4.90500       4.9999   
    4.91000       4.9999   
    4.91500       4.9999   
    4.92000       4.9999   
    4.92500       4.9999   
    4.93000       4.9999   
    4.93500       4.9999   
    4.94000       4.9999   
    4.94500       4.9999   
    4.95000       4.9999   
    4.95500       4.9999   
    4.96000       4.9999   
    4.96500       4.9999   
    4.97000       4.9999   
    4.97500       4.9999   
    4.98000       4.9999   
    4.98500       4.9999   
    4.99000       4.9999   
    4.99500       4.9999   
    5.00000       4.9999   
    5.00500       4.9999   
    5.01000       4.9999   
    5.01500       4.9999   
    5.02000       4.9999   
    5.02500       4.9999   
    5.03000       4.9999   
    5.03500       4.9999   
    5.04000       4.9999   
    5.04500       4.9999   
    5.05000       4.9999   
    5.05500       4.9999   
    5.06000       4.9999   
    5.06500       4.9999   
    5.07000       4.9999   
    5.07500       4.9999   
    5.08000       4.9999   
    5.08500       4.9999   
    5.09000       4.9999   
    5.09500       4.9999   
    5.10000       4.9999   
    5.10500       4.9999   
    5.11000       4.9999   
    5.11500       4.9999   
    5.12000       4.9999   
    5.12500       4.9999   
    5.13000       4.9999   
    5.13500       4.9999   
    5.14000       4.9999   
    5.14500       4.9999   
    5.15000       4.9999   
    5.15500       4.9999   
    5.16000       4.9999   
    5.16500       4.9999   
    5.17000       4.9999   
    5.17500       4.9999   
    5.18000       4.9999   
    5.18500       4.9999   
    5.19000       4.9999   
    5.19500       4.9999   
    5.20000       4.9999   
    5.20500       4.9999   
    5.21000       4.9999   
    5.21500       4.9999   
    5.22000       4.9999   
    5.22500       4.9999   
    5.23000       4.9999   
    5.23500       4.9999   
    5.24000       4.9999   
    5.24500       4.9999   
    5.25000       4.9999   
    5.25500       4.9999   
    5.26000       4.9999   
    5.26500       4.9999   
    5.27000       4.9999   
    5.27500       4.9999   
    5.28000       4.9999   
    5.28500       4.9999   
    5.29000       4.9999   
    5.29500       4.9999   
    5.30000       4.9999   
    5.30500       4.9999   
    5.31000       4.9999   
    5.31500       4.9999   
    5.32000       4.9998   
    5.32500       4.9998   
    5.33000       4.9998   
    5.33500       4.9998   
    5.34000       4.9998   
    5.34500       4.9998   
    5.35000       4.9998   
    5.35500       4.9998   
    5.36000       4.9998   
    5.36500       4.9998   
    5.37000       4.9998   
    5.37500       4.9998   
    5.38000       4.9998   
    5.38500       4.9998   
    5.39000       4.9998   
    5.39500       4.9998   
    5.40000       4.9998   
    5.40500       4.9998   
    5.41000       4.9998   
    5.41500       4.9998   
    5.42000       4.9998   
    5.42500       4.9998   
    5.43000       4.9998   
    5.43500       4.9998   
    5.44000       4.9998   
    5.44500       4.9998   
    5.45000       4.9998   
    5.45500       4.9998   
    5.46000       4.9998   
    5.46500       4.9998   
    5.47000       4.9998   
    5.47500       4.9998   
    5.48000       4.9998   
    5.48500       4.9998   
    5.49000       4.9998   
    5.49500       4.9998   
    5.50000       4.9998   
    5.50500       4.9998   
    5.51000       4.9998   
    5.51500       4.9998   
    5.52000       4.9998   
    5.52500       4.9998   
    5.53000       4.9998   
    5.53500       4.9998   
    5.54000       4.9998   
    5.54500       4.9998   
    5.55000       4.9998   
    5.55500       4.9998   
    5.56000       4.9998   
    5.56500       4.9998   
    5.57000       4.9998   
    5.57500       4.9998   
    5.58000       4.9998   
    5.58500       4.9998   
    5.59000       4.9998   
    5.59500       4.9998   
    5.60000       4.9998   
    5.60500       4.9998   
    5.61000       4.9998   
    5.61500       4.9998   
    5.62000       4.9998   
    5.62500       4.9998   
    5.63000       4.9998   
    5.63500       4.9998   
    5.64000       4.9998   
    5.64500       4.9998   
    5.65000       4.9998   
    5.65500       4.9998   
    5.66000       4.9998   
    5.66500       4.9998   
    5.67000       4.9998   
    5.67500       4.9998   
    5.68000       4.9998   
    5.68500       4.9998   
    5.69000       4.9998   
    5.69500       4.9998   
    5.70000       4.9998   
    5.70500       4.9998   
    5.71000       4.9998   
    5.71500       4.9998   
    5.72000       4.9998   
    5.72500       4.9998   
    5.73000       4.9998   
    5.73500       4.9998   
    5.74000       4.9998   
    5.74500       4.9998   
    5.75000       4.9998   
    5.75500       4.9998   
    5.76000       4.9998   
    5.76500       4.9998   
    5.77000       4.9998   
    5.77500       4.9998   
    5.78000       4.9998   
    5.78500       4.9998   
    5.79000       4.9998   
    5.79500       4.9998   
    5.80000       4.9998   
    5.80500       4.9998   
    5.81000       4.9998   
    5.81500       4.9998   
    5.82000       4.9998   
    5.82500       4.9998   
    5.83000       4.9998   
    5.83500       4.9998   
    5.84000       4.9998   
    5.84500       4.9998   
    5.85000       4.9998   
    5.85500       4.9998   
    5.86000       4.9998   
    5.86500       4.9998   
    5.87000       4.9998   
    5.87500       4.9998   
    5.88000       4.9998   
    5.88500       4.9998   
    5.89000       4.9998   
    5.89500       4.9998   
    5.90000       4.9998   
    5.90500       4.9998   
    5.91000       4.9998   
    5.91500       4.9998   
    5.92000       4.9998   
    5.92500       4.9998   
    5.93000       4.9998   
    5.93500       4.9998   
    5.94000       4.9998   
    5.94500       4.9998   
    5.95000       4.9998   
    5.95500       4.9998   
    5.96000       4.9998   
    5.96500       4.9998   
    5.97000       4.9998   
    5.97500       4.9998   
    5.98000       4.9998   
    5.98500       4.9998   
    5.99000       4.9998   
    5.99500       4.9998   
    6.00000       4.9998   
    6.00500       4.9998   
    6.01000       4.9998   
    6.01500       4.9998   
    6.02000       4.9998   
    6.02500       4.9998   
    6.03000       4.9998   
    6.03500       4.9998   
    6.04000       4.9998   
    6.04500       4.9998   
    6.05000       4.9998   
    6.05500       4.9998   
    6.06000       4.9998   
    6.06500       4.9998   
    6.07000       4.9998   
    6.07500       4.9998   
    6.08000       4.9998   
    6.08500       4.9998   
    6.09000       4.9998   
    6.09500       4.9998   
    6.10000       4.9998   
    6.10500       4.9998   
    6.11000       4.9998   
    6.11500       4.9998   
    6.12000       4.9998   
    6.12500       4.9998   
    6.13000       4.9998   
    6.13500       4.9998   
    6.14000       4.9998   
    6.14500       4.9998   
    6.15000       4.9998   
    6.15500       4.9998   
    6.16000       4.9998   
    6.16500       4.9998   
    6.17000       4.9998   
    6.17500       4.9998   
    6.18000       4.9998   
    6.18500       4.9998   
    6.19000       4.9998   
    6.19500       4.9998   
    6.20000       4.9998   
    6.20500       4.9998   
    6.21000       4.9998   
    6.21500       4.9998   
    6.22000       4.9998   
    6.22500       4.9998   
    6.23000       4.9998   
    6.23500       4.9998   
    6.24000       4.9998   
    6.24500       4.9998   
    6.25000       4.9998   
    6.25500       4.9998   
    6.26000       4.9998   
    6.26500       4.9998   
    6.27000       4.9998   
    6.27500       4.9998   
    6.28000       4.9998   
    6.28500       4.9998   
    6.29000       4.9998   
    6.29500       4.9998   
    6.30000       4.9998   
    6.30500       4.9998   
    6.31000       4.9998   
    6.31500       4.9998   
    6.32000       4.9998   
    6.32500       4.9998   
    6.33000       4.9998   
    6.33500       4.9998   
    6.34000       4.9998   
    6.34500       4.9998   
    6.35000       4.9998   
    6.35500       4.9998   
    6.36000       4.9998   
    6.36500       4.9998   
    6.37000       4.9998   
    6.37500       4.9998   
    6.38000       4.9998   
    6.38500       4.9998   
    6.39000       4.9998   
    6.39500       4.9998   
    6.40000       4.9998   
    6.40500       4.9998   
    6.41000       4.9998   
    6.41500       4.9998   
    6.42000       4.9997   
    6.42500       4.9997   
    6.43000       4.9997   
    6.43500       4.9997   
    6.44000       4.9997   
    6.44500       4.9997   
    6.45000       4.9997   
    6.45500       4.9997   
    6.46000       4.9997   
    6.46500       4.9997   
    6.47000       4.9997   
    6.47500       4.9997   
    6.48000       4.9997   
    6.48500       4.9997   
    6.49000       4.9997   
    6.49500       4.9997   
    6.50000       4.9997   
    6.50500       4.9997   
    6.51000       4.9997   
    6.51500       4.9997   
    6.52000       4.9997   
    6.52500       4.9997   
    6.53000       4.9997   
    6.53500       4.9997   
    6.54000       4.9997   
    6.54500       4.9997   
    6.55000       4.9997   
    6.55500       4.9997   
    6.56000       4.9997   
    6.56500       4.9997   
    6.57000       4.9997   
    6.57500       4.9997   
    6.58000       4.9997   
    6.58500       4.9997   
    6.59000       4.9997   
    6.59500       4.9997   
    6.60000       4.9997   
    6.60500       4.9997   
    6.61000       4.9997   
    6.61500       4.9997   
    6.62000       4.9997   
    6.62500       4.9997   
    6.63000       4.9997   
    6.63500       4.9997   
    6.64000       4.9997   
    6.64500       4.9997   
    6.65000       4.9997   
    6.65500       4.9997   
    6.66000       4.9997   
    6.66500       4.9997   
    6.67000       4.9997   
    6.67500       4.9997   
    6.68000       4.9997   
    6.68500       4.9997   
    6.69000       4.9997   
    6.69500       4.9997   
    6.70000       4.9997   
    6.70500       4.9997   
    6.71000       4.9997   
    6.71500       4.9997   
    6.72000       4.9997   
    6.72500       4.9997   
    6.73000       4.9997   
    6.73500       4.9997   
    6.74000       4.9997   
    6.74500       4.9997   
    6.75000       4.9997   
    6.75500       4.9997   
    6.76000       4.9997   
    6.76500       4.9997   
    6.77000       4.9997   
    6.77500       4.9997   
    6.78000       4.9997   
    6.78500       4.9997   
    6.79000       4.9997   
    6.79500       4.9997   
    6.80000       4.9997   
    6.80500       4.9997   
    6.81000       4.9997   
    6.81500       4.9997   
    6.82000       4.9997   
    6.82500       4.9997   
    6.83000       4.9997   
    6.83500       4.9997   
    6.84000       4.9997   
    6.84500       4.9997   
    6.85000       4.9997   
    6.85500       4.9997   
    6.86000       4.9997   
    6.86500       4.9997   
    6.87000       4.9997   
    6.87500       4.9997   
    6.88000       4.9997   
    6.88500       4.9997   
    6.89000       4.9997   
    6.89500       4.9997   
    6.90000       4.9997   
    6.90500       4.9997   
    6.91000       4.9997   
    6.91500       4.9997   
    6.92000       4.9997   
    6.92500       4.9997   
    6.93000       4.9997   
    6.93500       4.9997   
    6.94000       4.9997   
    6.94500       4.9997   
    6.95000       4.9997   
    6.95500       4.9997   
    6.96000       4.9997   
    6.96500       4.9997   
    6.97000       4.9997   
    6.97500       4.9997   
    6.98000       4.9997   
    6.98500       4.9997   
    6.99000       4.9997   
    6.99500       4.9997   
    7.00000       4.9997   
    7.00500       4.9997   
    7.01000       4.9997   
    7.01500       4.9997   
    7.02000       4.9997   
    7.02500       4.9997   
    7.03000       4.9997   
    7.03500       4.9997   
    7.04000       4.9997   
    7.04500       4.9997   
    7.05000       4.9996   
    7.05500       4.9996   
    7.06000       4.9996   
    7.06500       4.9996   
    7.07000       4.9996   
    7.07500       4.9996   
    7.08000       4.9996   
    7.08500       4.9996   
    7.09000       4.9996   
    7.09500       4.9996   
    7.10000       4.9996   
    7.10500       4.9996   
    7.11000       4.9996   
    7.11500       4.9996   
    7.12000       4.9996   
    7.12500       4.9996   
    7.13000       4.9996   
    7.13500       4.9996   
    7.14000       4.9996   
    7.14500       4.9996   
    7.15000       4.9996   
    7.15500       4.9996   
    7.16000       4.9996   
    7.16500       4.9996   
    7.17000       4.9996   
    7.17500       4.9996   
    7.18000       4.9996   
    7.18500       4.9996   
    7.19000       4.9996   
    7.19500       4.9996   
    7.20000       4.9996   
    7.20500       4.9996   
    7.21000       4.9996   
    7.21500       4.9996   
    7.22000       4.9996   
    7.22500       4.9996   
    7.23000       4.9996   
    7.23500       4.9996   
    7.24000       4.9996   
    7.24500       4.9996   
    7.25000       4.9996   
    7.25500       4.9996   
    7.26000       4.9996   
    7.26500       4.9996   
    7.27000       4.9996   
    7.27500       4.9996   
    7.28000       4.9996   
    7.28500       4.9996   
    7.29000       4.9996   
    7.29500       4.9996   
    7.30000       4.9996   
    7.30500       4.9996   
    7.31000       4.9996   
    7.31500       4.9996   
    7.32000       4.9996   
    7.32500       4.9996   
    7.33000       4.9996   
    7.33500       4.9996   
    7.34000       4.9996   
    7.34500       4.9996   
    7.35000       4.9996   
    7.35500       4.9996   
    7.36000       4.9996   
    7.36500       4.9996   
    7.37000       4.9996   
    7.37500       4.9996   
    7.38000       4.9996   
    7.38500       4.9996   
    7.39000       4.9996   
    7.39500       4.9996   
    7.40000       4.9996   
    7.40500       4.9996   
    7.41000       4.9996   
    7.41500       4.9996   
    7.42000       4.9996   
    7.42500       4.9996   
    7.43000       4.9996   
    7.43500       4.9996   
    7.44000       4.9996   
    7.44500       4.9996   
    7.45000       4.9996   
    7.45500       4.9996   
    7.46000       4.9996   
    7.46500       4.9996   
    7.47000       4.9996   
    7.47500       4.9996   
    7.48000       4.9996   
    7.48500       4.9996   
    7.49000       4.9995   
    7.49500       4.9995   
    7.50000       4.9995   
    7.50500       4.9995   
    7.51000       4.9995   
    7.51500       4.9995   
    7.52000       4.9995   
    7.52500       4.9995   
    7.53000       4.9995   
    7.53500       4.9995   
    7.54000       4.9995   
    7.54500       4.9995   
    7.55000       4.9995   
    7.55500       4.9995   
    7.56000       4.9995   
    7.56500       4.9995   
    7.57000       4.9995   
    7.57500       4.9995   
    7.58000       4.9995   
    7.58500       4.9995   
    7.59000       4.9995   
    7.59500       4.9995   
    7.60000       4.9995   
    7.60500       4.9995   
    7.61000       4.9995   
    7.61500       4.9995   
    7.62000       4.9995   
    7.62500       4.9995   
    7.63000       4.9995   
    7.63500       4.9995   
    7.64000       4.9995   
    7.64500       4.9995   
    7.65000       4.9995   
    7.65500       4.9995   
    7.66000       4.9995   
    7.66500       4.9995   
    7.67000       4.9995   
    7.67500       4.9995   
    7.68000       4.9995   
    7.68500       4.9995   
    7.69000       4.9995   
    7.69500       4.9995   
    7.70000       4.9995   
    7.70500       4.9995   
    7.71000       4.9995   
    7.71500       4.9995   
    7.72000       4.9995   
    7.72500       4.9995   
    7.73000       4.9995   
    7.73500       4.9995   
    7.74000       4.9995   
    7.74500       4.9995   
    7.75000       4.9995   
    7.75500       4.9995   
    7.76000       4.9995   
    7.76500       4.9995   
    7.77000       4.9995   
    7.77500       4.9995   
    7.78000       4.9995   
    7.78500       4.9995   
    7.79000       4.9995   
    7.79500       4.9995   
    7.80000       4.9995   
    7.80500       4.9995   
    7.81000       4.9995   
    7.81500       4.9995   
    7.82000       4.9995   
    7.82500       4.9995   
    7.83000       4.9994   
    7.83500       4.9994   
    7.84000       4.9994   
    7.84500       4.9994   
    7.85000       4.9994   
    7.85500       4.9994   
    7.86000       4.9994   
    7.86500       4.9994   
    7.87000       4.9994   
    7.87500       4.9994   
    7.88000       4.9994   
    7.88500       4.9994   
    7.89000       4.9994   
    7.89500       4.9994   
    7.90000       4.9994   
    7.90500       4.9994   
    7.91000       4.9994   
    7.91500       4.9994   
    7.92000       4.9994   
    7.92500       4.9994   
    7.93000       4.9994   
    7.93500       4.9994   
    7.94000       4.9994   
    7.94500       4.9994   
    7.95000       4.9994   
    7.95500       4.9994   
    7.96000       4.9994   
    7.96500       4.9994   
    7.97000       4.9994   
    7.97500       4.9994   
    7.98000       4.9994   
    7.98500       4.9994   
    7.99000       4.9994   
    7.99500       4.9994   
    8.00000       4.9994   
    8.00500       4.9994   
    8.01000       4.9994   
    8.01500       4.9994   
    8.02000       4.9994   
    8.02500       4.9994   
    8.03000       4.9994   
    8.03500       4.9994   
    8.04000       4.9994   
    8.04500       4.9994   
    8.05000       4.9994   
    8.05500       4.9994   
    8.06000       4.9994   
    8.06500       4.9994   
    8.07000       4.9994   
    8.07500       4.9994   
    8.08000       4.9994   
    8.08500       4.9994   
    8.09000       4.9994   
    8.09500       4.9994   
    8.10000       4.9993   
    8.10500       4.9993   
    8.11000       4.9993   
    8.11500       4.9993   
    8.12000       4.9993   
    8.12500       4.9993   
    8.13000       4.9993   
    8.13500       4.9993   
    8.14000       4.9993   
    8.14500       4.9993   
    8.15000       4.9993   
    8.15500       4.9993   
    8.16000       4.9993   
    8.16500       4.9993   
    8.17000       4.9993   
    8.17500       4.9993   
    8.18000       4.9993   
    8.18500       4.9993   
    8.19000       4.9993   
    8.19500       4.9993   
    8.20000       4.9993   
    8.20500       4.9993   
    8.21000       4.9993   
    8.21500       4.9993   
    8.22000       4.9993   
    8.22500       4.9993   
    8.23000       4.9993   
    8.23500       4.9993   
    8.24000       4.9993   
    8.24500       4.9993   
    8.25000       4.9993   
    8.25500       4.9993   
    8.26000       4.9993   
    8.26500       4.9993   
    8.27000       4.9993   
    8.27500       4.9993   
    8.28000       4.9993   
    8.28500       4.9993   
    8.29000       4.9993   
    8.29500       4.9993   
    8.30000       4.9993   
    8.30500       4.9993   
    8.31000       4.9993   
    8.31500       4.9993   
    8.32000       4.9993   
    8.32500       4.9993   
    8.33000       4.9992   
    8.33500       4.9992   
    8.34000       4.9992   
    8.34500       4.9992   
    8.35000       4.9992   
    8.35500       4.9992   
    8.36000       4.9992   
    8.36500       4.9992   
    8.37000       4.9992   
    8.37500       4.9992   
    8.38000       4.9992   
    8.38500       4.9992   
    8.39000       4.9992   
    8.39500       4.9992   
    8.40000       4.9992   
    8.40500       4.9992   
    8.41000       4.9992   
    8.41500       4.9992   
    8.42000       4.9992   
    8.42500       4.9992   
    8.43000       4.9992   
    8.43500       4.9992   
    8.44000       4.9992   
    8.44500       4.9992   
    8.45000       4.9992   
    8.45500       4.9992   
    8.46000       4.9992   
    8.46500       4.9992   
    8.47000       4.9992   
    8.47500       4.9992   
    8.48000       4.9992   
    8.48500       4.9992   
    8.49000       4.9992   
    8.49500       4.9992   
    8.50000       4.9992   
    8.50500       4.9992   
    8.51000       4.9992   
    8.51500       4.9992   
    8.52000       4.9992   
    8.52500       4.9991   
    8.53000       4.9991   
    8.53500       4.9991   
    8.54000       4.9991   
    8.54500       4.9991   
    8.55000       4.9991   
    8.55500       4.9991   
    8.56000       4.9991   
    8.56500       4.9991   
    8.57000       4.9991   
    8.57500       4.9991   
    8.58000       4.9991   
    8.58500       4.9991   
    8.59000       4.9991   
    8.59500       4.9991   
    8.60000       4.9991   
    8.60500       4.9991   
    8.61000       4.9991   
    8.61500       4.9991   
    8.62000       4.9991   
    8.62500       4.9991   
    8.63000       4.9991   
    8.63500       4.9991   
    8.64000       4.9991   
    8.64500       4.9991   
    8.65000       4.9991   
    8.65500       4.9991   
    8.66000       4.9991   
    8.66500       4.9991   
    8.67000       4.9991   
    8.67500       4.9991   
    8.68000       4.9991   
    8.68500       4.9991   
    8.69000       4.9991   
    8.69500       4.9990   
    8.70000       4.9990   
    8.70500       4.9990   
    8.71000       4.9990   
    8.71500       4.9990   
    8.72000       4.9990   
    8.72500       4.9990   
    8.73000       4.9990   
    8.73500       4.9990   
    8.74000       4.9990   
    8.74500       4.9990   
    8.75000       4.9990   
    8.75500       4.9990   
    8.76000       4.9990   
    8.76500       4.9990   
    8.77000       4.9990   
    8.77500       4.9990   
    8.78000       4.9990   
    8.78500       4.9990   
    8.79000       4.9990   
    8.79500       4.9990   
    8.80000       4.9990   
    8.80500       4.9990   
    8.81000       4.9990   
    8.81500       4.9990   
    8.82000       4.9990   
    8.82500       4.9990   
    8.83000       4.9990   
    8.83500       4.9990   
    8.84000       4.9990   
    8.84500       4.9990   
    8.85000       4.9989   
    8.85500       4.9989   
    8.86000       4.9989   
    8.86500       4.9989   
    8.87000       4.9989   
    8.87500       4.9989   
    8.88000       4.9989   
    8.88500       4.9989   
    8.89000       4.9989   
    8.89500       4.9989   
    8.90000       4.9989   
    8.90500       4.9989   
    8.91000       4.9989   
    8.91500       4.9989   
    8.92000       4.9989   
    8.92500       4.9989   
    8.93000       4.9989   
    8.93500       4.9989   
    8.94000       4.9989   
    8.94500       4.9989   
    8.95000       4.9989   
    8.95500       4.9989   
    8.96000       4.9989   
    8.96500       4.9989   
    8.97000       4.9989   
    8.97500       4.9989   
    8.98000       4.9989   
    8.98500       4.9989   
    8.99000       4.9988   
    8.99500       4.9988   
    9.00000       4.9988   
    9.00500       4.9988   
    9.01000       4.9988   
    9.01500       4.9988   
    9.02000       4.9988   
    9.02500       4.9988   
    9.03000       4.9988   
    9.03500       4.9988   
    9.04000       4.9988   
    9.04500       4.9988   
    9.05000       4.9988   
    9.05500       4.9988   
    9.06000       4.9988   
    9.06500       4.9988   
    9.07000       4.9988   
    9.07500       4.9988   
    9.08000       4.9988   
    9.08500       4.9988   
    9.09000       4.9988   
    9.09500       4.9988   
    9.10000       4.9988   
    9.10500       4.9988   
    9.11000       4.9988   
    9.11500       4.9987   
    9.12000       4.9987   
    9.12500       4.9987   
    9.13000       4.9987   
    9.13500       4.9987   
    9.14000       4.9987   
    9.14500       4.9987   
    9.15000       4.9987   
    9.15500       4.9987   
    9.16000       4.9987   
    9.16500       4.9987   
    9.17000       4.9987   
    9.17500       4.9987   
    9.18000       4.9987   
    9.18500       4.9987   
    9.19000       4.9987   
    9.19500       4.9987   
    9.20000       4.9987   
    9.20500       4.9987   
    9.21000       4.9987   
    9.21500       4.9987   
    9.22000       4.9987   
    9.22500       4.9987   
    9.23000       4.9986   
    9.23500       4.9986   
    9.24000       4.9986   
    9.24500       4.9986   
    9.25000       4.9986   
    9.25500       4.9986   
    9.26000       4.9986   
    9.26500       4.9986   
    9.27000       4.9986   
    9.27500       4.9986   
    9.28000       4.9986   
    9.28500       4.9986   
    9.29000       4.9986   
    9.29500       4.9986   
    9.30000       4.9986   
    9.30500       4.9986   
    9.31000       4.9986   
    9.31500       4.9986   
    9.32000       4.9986   
    9.32500       4.9986   
    9.33000       4.9986   
    9.33500       4.9985   
    9.34000       4.9985   
    9.34500       4.9985   
    9.35000       4.9985   
    9.35500       4.9985   
    9.36000       4.9985   
    9.36500       4.9985   
    9.37000       4.9985   
    9.37500       4.9985   
    9.38000       4.9985   
    9.38500       4.9985   
    9.39000       4.9985   
    9.39500       4.9985   
    9.40000       4.9985   
    9.40500       4.9985   
    9.41000       4.9985   
    9.41500       4.9985   
    9.42000       4.9985   
    9.42500       4.9985   
    9.43000       4.9985   
    9.43500       4.9984   
    9.44000       4.9984   
    9.44500       4.9984   
    9.45000       4.9984   
    9.45500       4.9984   
    9.46000       4.9984   
    9.46500       4.9984   
    9.47000       4.9984   
    9.47500       4.9984   
    9.48000       4.9984   
    9.48500       4.9984   
    9.49000       4.9984   
    9.49500       4.9984   
    9.50000       4.9984   
    9.50500       4.9984   
    9.51000       4.9984   
    9.51500       4.9984   
    9.52000       4.9984   
    9.52500       4.9983   
    9.53000       4.9983   
    9.53500       4.9983   
    9.54000       4.9983   
    9.54500       4.9983   
    9.55000       4.9983   
    9.55500       4.9983   
    9.56000       4.9983   
    9.56500       4.9983   
    9.57000       4.9983   
    9.57500       4.9983   
    9.58000       4.9983   
    9.58500       4.9983   
    9.59000       4.9983   
    9.59500       4.9983   
    9.60000       4.9983   
    9.60500       4.9983   
    9.61000       4.9983   
    9.61500       4.9982   
    9.62000       4.9982   
    9.62500       4.9982   
    9.63000       4.9982   
    9.63500       4.9982   
    9.64000       4.9982   
    9.64500       4.9982   
    9.65000       4.9982   
    9.65500       4.9982   
    9.66000       4.9982   
    9.66500       4.9982   
    9.67000       4.9982   
    9.67500       4.9982   
    9.68000       4.9982   
    9.68500       4.9982   
    9.69000       4.9982   
    9.69500       4.9981   
    9.70000       4.9981   
    9.70500       4.9981   
    9.71000       4.9981   
    9.71500       4.9981   
    9.72000       4.9981   
    9.72500       4.9981   
    9.73000       4.9981   
    9.73500       4.9981   
    9.74000       4.9981   
    9.74500       4.9981   
    9.75000       4.9981   
    9.75500       4.9981   
    9.76000       4.9981   
    9.76500       4.9981   
    9.77000       4.9980   
    9.77500       4.9980   
    9.78000       4.9980   
    9.78500       4.9980   
    9.79000       4.9980   
    9.79500       4.9980   
    9.80000       4.9980   
    9.80500       4.9980   
    9.81000       4.9980   
    9.81500       4.9980   
    9.82000       4.9980   
    9.82500       4.9980   
    9.83000       4.9980   
    9.83500       4.9980   
    9.84000       4.9980   
    9.84500       4.9979   
    9.85000       4.9979   
    9.85500       4.9979   
    9.86000       4.9979   
    9.86500       4.9979   
    9.87000       4.9979   
    9.87500       4.9979   
    9.88000       4.9979   
    9.88500       4.9979   
    9.89000       4.9979   
    9.89500       4.9979   
    9.90000       4.9979   
    9.90500       4.9979   
    9.91000       4.9979   
    9.91500       4.9978   
    9.92000       4.9978   
    9.92500       4.9978   
    9.93000       4.9978   
    9.93500       4.9978   
    9.94000       4.9978   
    9.94500       4.9978   
    9.95000       4.9978   
    9.95500       4.9978   
    9.96000       4.9978   
    9.96500       4.9978   
    9.97000       4.9978   
    9.97500       4.9978   
    9.98000       4.9977   
    9.98500       4.9977   
    9.99000       4.9977   
    9.99500       4.9977   
   10.00000       4.9977   
   10.00500       4.9977   
   10.01000       4.9977   
   10.01500       4.9977   
   10.02000       4.9977   
   10.02500       4.9977   
   10.03000       4.9977   
   10.03500       4.9977   
   10.04000       4.9977   
   10.04500       4.9976   
   10.05000       4.9976   
   10.05500       4.9976   
   10.06000       4.9976   
   10.06500       4.9976   
   10.07000       4.9976   
   10.07500       4.9976   
   10.08000       4.9976   
   10.08500       4.9976   
   10.09000       4.9976   
   10.09500       4.9976   
   10.10000       4.9976   
   10.10500       4.9975   
   10.11000       4.9975   
   10.11500       4.9975   
   10.12000       4.9975   
   10.12500       4.9975   
   10.13000       4.9975   
   10.13500       4.9975   
   10.14000       4.9975   
   10.14500       4.9975   
   10.15000       4.9975   
   10.15500       4.9975   
   10.16000       4.9974   
   10.16500       4.9974   
   10.17000       4.9974   
   10.17500       4.9974   
   10.18000       4.9974   
   10.18500       4.9974   
   10.19000       4.9974   
   10.19500       4.9974   
   10.20000       4.9974   
   10.20500       4.9974   
   10.21000       4.9974   
   10.21500       4.9973   
   10.22000       4.9973   
   10.22500       4.9973   
   10.23000       4.9973   
   10.23500       4.9973   
   10.24000       4.9973   
   10.24500       4.9973   
   10.25000       4.9973   
   10.25500       4.9973   
   10.26000       4.9973   
   10.26500       4.9973   
   10.27000       4.9972   
   10.27500       4.9972   
   10.28000       4.9972   
   10.28500       4.9972   
   10.29000       4.9972   
   10.29500       4.9972   
   10.30000       4.9972   
   10.30500       4.9972   
   10.31000       4.9972   
   10.31500       4.9972   
   10.32000       4.9971   
   10.32500       4.9971   
   10.33000       4.9971   
   10.33500       4.9971   
   10.34000       4.9971   
   10.34500       4.9971   
   10.35000       4.9971   
   10.35500       4.9971   
   10.36000       4.9971   
   10.36500       4.9971   
   10.37000       4.9970   
   10.37500       4.9970   
   10.38000       4.9970   
   10.38500       4.9970   
   10.39000       4.9970   
   10.39500       4.9970   
   10.40000       4.9970   
   10.40500       4.9970   
   10.41000       4.9970   
   10.41500       4.9970   
   10.42000       4.9969   
   10.42500       4.9969   
   10.43000       4.9969   
   10.43500       4.9969   
   10.44000       4.9969   
   10.44500       4.9969   
   10.45000       4.9969   
   10.45500       4.9969   
   10.46000       4.9969   
   10.46500       4.9968   
   10.47000       4.9968   
   10.47500       4.9968   
   10.48000       4.9968   
   10.48500       4.9968   
   10.49000       4.9968   
   10.49500       4.9968   
   10.50000       4.9968   
   10.50500       4.9968   
   10.51000       4.9967   
   10.51500       4.9967   
   10.52000       4.9967   
   10.52500       4.9967   
   10.53000       4.9967   
   10.53500       4.9967   
   10.54000       4.9967   
   10.54500       4.9967   
   10.55000       4.9966   
   10.55500       4.9966   
   10.56000       4.9966   
   10.56500       4.9966   
   10.57000       4.9966   
   10.57500       4.9966   
   10.58000       4.9966   
   10.58500       4.9966   
   10.59000       4.9966   
   10.59500       4.9965   
   10.60000       4.9965   
   10.60500       4.9965   
   10.61000       4.9965   
   10.61500       4.9965   
   10.62000       4.9965   
   10.62500       4.9965   
   10.63000       4.9965   
   10.63500       4.9964   
   10.64000       4.9964   
   10.64500       4.9964   
   10.65000       4.9964   
   10.65500       4.9964   
   10.66000       4.9964   
   10.66500       4.9964   
   10.67000       4.9964   
   10.67500       4.9963   
   10.68000       4.9963   
   10.68500       4.9963   
   10.69000       4.9963   
   10.69500       4.9963   
   10.70000       4.9963   
   10.70500       4.9963   
   10.71000       4.9962   
   10.71500       4.9962   
   10.72000       4.9962   
   10.72500       4.9962   
   10.73000       4.9962   
   10.73500       4.9962   
   10.74000       4.9962   
   10.74500       4.9962   
   10.75000       4.9961   
   10.75500       4.9961   
   10.76000       4.9961   
   10.76500       4.9961   
   10.77000       4.9961   
   10.77500       4.9961   
   10.78000       4.9961   
   10.78500       4.9960   
   10.79000       4.9960   
   10.79500       4.9960   
   10.80000       4.9960   
   10.80500       4.9960   
   10.81000       4.9960   
   10.81500       4.9960   
   10.82000       4.9959   
   10.82500       4.9959   
   10.83000       4.9959   
   10.83500       4.9959   
   10.84000       4.9959   
   10.84500       4.9959   
   10.85000       4.9959   
   10.85500       4.9958   
   10.86000       4.9958   
   10.86500       4.9958   
   10.87000       4.9958   
   10.87500       4.9958   
   10.88000       4.9958   
   10.88500       4.9958   
   10.89000       4.9957   
   10.89500       4.9957   
   10.90000       4.9957   
   10.90500       4.9957   
   10.91000       4.9957   
   10.91500       4.9957   
   10.92000       4.9957   
   10.92500       4.9956   
   10.93000       4.9956   
   10.93500       4.9956   
   10.94000       4.9956   
   10.94500       4.9956   
   10.95000       4.9956   
   10.95500       4.9955   
   10.96000       4.9955   
   10.96500       4.9955   
   10.97000       4.9955   
   10.97500       4.9955   
   10.98000       4.9955   
   10.98500       4.9954   
   10.99000       4.9954   
   10.99500       4.9954   
   11.00000       4.9954   
   11.00500       4.9954   
   11.01000       4.9954   
   11.01500       4.9954   
   11.02000       4.9953   
   11.02500       4.9953   
   11.03000       4.9953   
   11.03500       4.9953   
   11.04000       4.9953   
   11.04500       4.9953   
   11.05000       4.9952   
   11.05500       4.9952   
   11.06000       4.9952   
   11.06500       4.9952   
   11.07000       4.9952   
   11.07500       4.9951   
   11.08000       4.9951   
   11.08500       4.9951   
   11.09000       4.9951   
   11.09500       4.9951   
   11.10000       4.9951   
   11.10500       4.9950   
   11.11000       4.9950   
   11.11500       4.9950   
   11.12000       4.9950   
   11.12500       4.9950   
   11.13000       4.9950   
   11.13500       4.9949   
   11.14000       4.9949   
   11.14500       4.9949   
   11.15000       4.9949   
   11.15500       4.9949   
   11.16000       4.9948   
   11.16500       4.9948   
   11.17000       4.9948   
   11.17500       4.9948   
   11.18000       4.9948   
   11.18500       4.9948   
   11.19000       4.9947   
   11.19500       4.9947   
   11.20000       4.9947   
   11.20500       4.9947   
   11.21000       4.9947   
   11.21500       4.9946   
   11.22000       4.9946   
   11.22500       4.9946   
   11.23000       4.9946   
   11.23500       4.9946   
   11.24000       4.9945   
   11.24500       4.9945   
   11.25000       4.9945   
   11.25500       4.9945   
   11.26000       4.9945   
   11.26500       4.9944   
   11.27000       4.9944   
   11.27500       4.9944   
   11.28000       4.9944   
   11.28500       4.9944   
   11.29000       4.9943   
   11.29500       4.9943   
   11.30000       4.9943   
   11.30500       4.9943   
   11.31000       4.9943   
   11.31500       4.9942   
   11.32000       4.9942   
   11.32500       4.9942   
   11.33000       4.9942   
   11.33500       4.9942   
   11.34000       4.9941   
   11.34500       4.9941   
   11.35000       4.9941   
   11.35500       4.9941   
   11.36000       4.9941   
   11.36500       4.9940   
   11.37000       4.9940   
   11.37500       4.9940   
   11.38000       4.9940   
   11.38500       4.9940   
   11.39000       4.9939   
   11.39500       4.9939   
   11.40000       4.9939   
   11.40500       4.9939   
   11.41000       4.9938   
   11.41500       4.9938   
   11.42000       4.9938   
   11.42500       4.9938   
   11.43000       4.9938   
   11.43500       4.9937   
   11.44000       4.9937   
   11.44500       4.9937   
   11.45000       4.9937   
   11.45500       4.9936   
   11.46000       4.9936   
   11.46500       4.9936   
   11.47000       4.9936   
   11.47500       4.9936   
   11.48000       4.9935   
   11.48500       4.9935   
   11.49000       4.9935   
   11.49500       4.9935   
   11.50000       4.9934   
   11.50500       4.9934   
   11.51000       4.9934   
   11.51500       4.9934   
   11.52000       4.9933   
   11.52500       4.9933   
   11.53000       4.9933   
   11.53500       4.9933   
   11.54000       4.9932   
   11.54500       4.9932   
   11.55000       4.9932   
   11.55500       4.9932   
   11.56000       4.9932   
   11.56500       4.9931   
   11.57000       4.9931   
   11.57500       4.9931   
   11.58000       4.9931   
   11.58500       4.9930   
   11.59000       4.9930   
   11.59500       4.9930   
   11.60000       4.9930   
   11.60500       4.9929   
   11.61000       4.9929   
   11.61500       4.9929   
   11.62000       4.9929   
   11.62500       4.9928   
   11.63000       4.9928   
   11.63500       4.9928   
   11.64000       4.9928   
   11.64500       4.9927   
   11.65000       4.9927   
   11.65500       4.9927   
   11.66000       4.9926   
   11.66500       4.9926   
   11.67000       4.9926   
   11.67500       4.9926   
   11.68000       4.9925   
   11.68500       4.9925   
   11.69000       4.9925   
   11.69500       4.9925   
   11.70000       4.9924   
   11.70500       4.9924   
   11.71000       4.9924   
   11.71500       4.9924   
   11.72000       4.9923   
   11.72500       4.9923   
   11.73000       4.9923   
   11.73500       4.9922   
   11.74000       4.9922   
   11.74500       4.9922   
   11.75000       4.9922   
   11.75500       4.9921   
   11.76000       4.9921   
   11.76500       4.9921   
   11.77000       4.9920   
   11.77500       4.9920   
   11.78000       4.9920   
   11.78500       4.9920   
   11.79000       4.9919   
   11.79500       4.9919   
   11.80000       4.9919   
   11.80500       4.9918   
   11.81000       4.9918   
   11.81500       4.9918   
   11.82000       4.9918   
   11.82500       4.9917   
   11.83000       4.9917   
   11.83500       4.9917   
   11.84000       4.9916   
   11.84500       4.9916   
   11.85000       4.9916   
   11.85500       4.9915   
   11.86000       4.9915   
   11.86500       4.9915   
   11.87000       4.9915   
   11.87500       4.9914   
   11.88000       4.9914   
   11.88500       4.9914   
   11.89000       4.9913   
   11.89500       4.9913   
   11.90000       4.9913   
   11.90500       4.9912   
   11.91000       4.9912   
   11.91500       4.9912   
   11.92000       4.9911   
   11.92500       4.9911   
   11.93000       4.9911   
   11.93500       4.9911   
   11.94000       4.9910   
   11.94500       4.9910   
   11.95000       4.9910   
   11.95500       4.9909   
   11.96000       4.9909   
   11.96500       4.9909   
   11.97000       4.9908   
   11.97500       4.9908   
   11.98000       4.9908   
   11.98500       4.9907   
   11.99000       4.9907   
   11.99500       4.9907   
   12.00000       4.9906   
   12.00500       4.9906   
   12.01000       4.9906   
   12.01500       4.9905   
   12.02000       4.9905   
   12.02500       4.9905   
[...]
   56.75000     -60.8523   
   56.75500     -60.8707   
   56.76000     -60.8890   
   56.76500     -60.9074   
   56.77000     -60.9258   
   56.77500     -60.9441   
   56.78000     -60.9625   
   56.78500     -60.9808   
   56.79000     -60.9992   
   56.79500     -61.0176   
   56.80000     -61.0359   
   56.80500     -61.0543   
   56.81000     -61.0727   
   56.81500     -61.0910   
   56.82000     -61.1094   
   56.82500     -61.1278   
   56.83000     -61.1462   
   56.83500     -61.1645   
   56.84000     -61.1829   
   56.84500     -61.2013   
   56.85000     -61.2196   
   56.85500     -61.2380   
   56.86000     -61.2564   
   56.86500     -61.2748   
   56.87000     -61.2931   
   56.87500     -61.3115   
   56.88000     -61.3299   
   56.88500     -61.3483   
   56.89000     -61.3666   
   56.89500     -61.3850   
   56.90000     -61.4034   
   56.90500     -61.4218   
   56.91000     -61.4402   
   56.91500     -61.4585   
   56.92000     -61.4769   
   56.92500     -61.4953   
   56.93000     -61.5137   
   56.93500     -61.5321   
   56.94000     -61.5505   
   56.94500     -61.5689   
   56.95000     -61.5872   
   56.95500     -61.6056   
   56.96000     -61.6240   
   56.96500     -61.6424   
   56.97000     -61.6608   
   56.97500     -61.6792   
   56.98000     -61.6976   
   56.98500     -61.7160   
   56.99000     -61.7344   
   56.99500     -61.7527   
   57.00000     -61.7711   
   57.00500     -61.7895   
   57.01000     -61.8079   
   57.01500     -61.8263   
   57.02000     -61.8447   
   57.02500     -61.8631   
   57.03000     -61.8815   
   57.03500     -61.8999   
   57.04000     -61.9183   
   57.04500     -61.9367   
   57.05000     -61.9551   
   57.05500     -61.9735   
   57.06000     -61.9919   
   57.06500     -62.0103   
   57.07000     -62.0287   
   57.07500     -62.0471   
   57.08000     -62.0655   
   57.08500     -62.0839   
   57.09000     -62.1023   
   57.09500     -62.1207   
   57.10000     -62.1391   
   57.10500     -62.1575   
   57.11000     -62.1759   
   57.11500     -62.1943   
   57.12000     -62.2128   
   57.12500     -62.2312   
   57.13000     -62.2496   
   57.13500     -62.2680   
   57.14000     -62.2864   
   57.14500     -62.3048   
   57.15000     -62.3232   
   57.15500     -62.3416   
   57.16000     -62.3600   
   57.16500     -62.3785   
   57.17000     -62.3969   
   57.17500     -62.4153   
   57.18000     -62.4337   
   57.18500     -62.4521   
   57.19000     -62.4705   
   57.19500     -62.4890   
   57.20000     -62.5074   
   57.20500     -62.5258   
   57.21000     -62.5442   
   57.21500     -62.5626   
   57.22000     -62.5811   
   57.22500     -62.5995   
   57.23000     -62.6179   
   57.23500     -62.6363   
   57.24000     -62.6547   
   57.24500     -62.6732   
   57.25000     -62.6916   
   57.25500     -62.7100   
   57.26000     -62.7284   
   57.26500     -62.7469   
   57.27000     -62.7653   
   57.27500     -62.7837   
   57.28000     -62.8022   
   57.28500     -62.8206   
   57.29000     -62.8390   
   57.29500     -62.8574   
   57.30000     -62.8759   
   57.30500     -62.8943   
   57.31000     -62.9127   
   57.31500     -62.9312   
   57.32000     -62.9496   
   57.32500     -62.9680   
   57.33000     -62.9865   
   57.33500     -63.0049   
   57.34000     -63.0234   
   57.34500     -63.0418   
   57.35000     -63.0602   
   57.35500     -63.0787   
   57.36000     -63.0971   
   57.36500     -63.1155   
   57.37000     -63.1340   
   57.37500     -63.1524   
   57.38000     -63.1709   
   57.38500     -63.1893   
   57.39000     -63.2077   
   57.39500     -63.2262   
   57.40000     -63.2446   
   57.40500     -63.2631   
   57.41000     -63.2815   
   57.41500     -63.3000   
   57.42000     -63.3184   
   57.42500     -63.3369   
   57.43000     -63.3553   
   57.43500     -63.3738   
   57.44000     -63.3922   
   57.44500     -63.4107   
   57.45000     -63.4291   
   57.45500     -63.4476   
   57.46000     -63.4660   
   57.46500     -63.4845   
   57.47000     -63.5029   
   57.47500     -63.5214   
   57.48000     -63.5398   
   57.48500     -63.5583   
   57.49000     -63.5767   
   57.49500     -63.5952   
   57.50000     -63.6136   
   57.50500     -63.6321   
   57.51000     -63.6506   
   57.51500     -63.6690   
   57.52000     -63.6875   
   57.52500     -63.7059   
   57.53000     -63.7244   
   57.53500     -63.7429   
   57.54000     -63.7613   
   57.54500     -63.7798   
   57.55000     -63.7982   
   57.55500     -63.8167   
   57.56000     -63.8352   
   57.56500     -63.8536   
   57.57000     -63.8721   
   57.57500     -63.8906   
   57.58000     -63.9090   
   57.58500     -63.9275   
   57.59000     -63.9460   
   57.59500     -63.9644   
   57.60000     -63.9829   
   57.60500     -64.0014   
   57.61000     -64.0199   
   57.61500     -64.0383   
   57.62000     -64.0568   
   57.62500     -64.0753   
   57.63000     -64.0937   
   57.63500     -64.1122   
   57.64000     -64.1307   
   57.64500     -64.1492   
   57.65000     -64.1676   
   57.65500     -64.1861   
   57.66000     -64.2046   
   57.66500     -64.2231   
   57.67000     -64.2415   
   57.67500     -64.2600   
   57.68000     -64.2785   
   57.68500     -64.2970   
   57.69000     -64.3155   
   57.69500     -64.3339   
   57.70000     -64.3524   
   57.70500     -64.3709   
   57.71000     -64.3894   
   57.71500     -64.4079   
   57.72000     -64.4264   
   57.72500     -64.4448   
   57.73000     -64.4633   
   57.73500     -64.4818   
   57.74000     -64.5003   
   57.74500     -64.5188   
   57.75000     -64.5373   
   57.75500     -64.5558   
   57.76000     -64.5742   
   57.76500     -64.5927   
   57.77000     -64.6112   
   57.77500     -64.6297   
   57.78000     -64.6482   
   57.78500     -64.6667   
   57.79000     -64.6852   
   57.79500     -64.7037   
   57.80000     -64.7222   
   57.80500     -64.7407   
   57.81000     -64.7592   
   57.81500     -64.7777   
   57.82000     -64.7962   
   57.82500     -64.8147   
   57.83000     -64.8331   
   57.83500     -64.8516   
   57.84000     -64.8701   
   57.84500     -64.8886   
   57.85000     -64.9071   
   57.85500     -64.9256   
   57.86000     -64.9441   
   57.86500     -64.9626   
   57.87000     -64.9811   
   57.87500     -64.9997   
   57.88000     -65.0182   
   57.88500     -65.0367   
   57.89000     -65.0552   
   57.89500     -65.0737   
   57.90000     -65.0922   
   57.90500     -65.1107   
   57.91000     -65.1292   
   57.91500     -65.1477   
   57.92000     -65.1662   
   57.92500     -65.1847   
   57.93000     -65.2032   
   57.93500     -65.2217   
   57.94000     -65.2402   
   57.94500     -65.2588   
   57.95000     -65.2773   
   57.95500     -65.2958   
   57.96000     -65.3143   
   57.96500     -65.3328   
   57.97000     -65.3513   
   57.97500     -65.3698   
   57.98000     -65.3883   
   57.98500     -65.4069   
   57.99000     -65.4254   
   57.99500     -65.4439   
   58.00000     -65.4624   
   58.00500     -65.4809   
   58.01000     -65.4995   
   58.01500     -65.5180   
   58.02000     -65.5365   
   58.02500     -65.5550   
   58.03000     -65.5735   
   58.03500     -65.5921   
   58.04000     -65.6106   
   58.04500     -65.6291   
   58.05000     -65.6476   
   58.05500     -65.6661   
   58.06000     -65.6847   
   58.06500     -65.7032   
   58.07000     -65.7217   
   58.07500     -65.7403   
   58.08000     -65.7588   
   58.08500     -65.7773   
   58.09000     -65.7958   
   58.09500     -65.8144   
   58.10000     -65.8329   
   58.10500     -65.8514   
   58.11000     -65.8700   
   58.11500     -65.8885   
   58.12000     -65.9070   
   58.12500     -65.9256   
   58.13000     -65.9441   
   58.13500     -65.9626   
   58.14000     -65.9812   
   58.14500     -65.9997   
   58.15000     -66.0182   
   58.15500     -66.0368   
   58.16000     -66.0553   
   58.16500     -66.0738   
   58.17000     -66.0924   
   58.17500     -66.1109   
   58.18000     -66.1294   
   58.18500     -66.1480   
   58.19000     -66.1665   
   58.19500     -66.1851   
   58.20000     -66.2036   
   58.20500     -66.2222   
   58.21000     -66.2407   
   58.21500     -66.2592   
   58.22000     -66.2778   
   58.22500     -66.2963   
   58.23000     -66.3149   
   58.23500     -66.3334   
   58.24000     -66.3520   
   58.24500     -66.3705   
   58.25000     -66.3891   
   58.25500     -66.4076   
   58.26000     -66.4262   
   58.26500     -66.4447   
   58.27000     -66.4633   
   58.27500     -66.4818   
   58.28000     -66.5004   
   58.28500     -66.5189   
   58.29000     -66.5375   
   58.29500     -66.5560   
   58.30000     -66.5746   
   58.30500     -66.5931   
   58.31000     -66.6117   
   58.31500     -66.6302   
   58.32000     -66.6488   
   58.32500     -66.6673   
   58.33000     -66.6859   
   58.33500     -66.7045   
   58.34000     -66.7230   
   58.34500     -66.7416   
   58.35000     -66.7601   
   58.35500     -66.7787   
   58.36000     -66.7972   
   58.36500     -66.8158   
   58.37000     -66.8344   
   58.37500     -66.8529   
   58.38000     -66.8715   
   58.38500     -66.8901   
   58.39000     -66.9086   
   58.39500     -66.9272   
   58.40000     -66.9457   
   58.40500     -66.9643   
   58.41000     -66.9829   
   58.41500     -67.0014   
   58.42000     -67.0200   
   58.42500     -67.0386   
   58.43000     -67.0572   
   58.43500     -67.0757   
   58.44000     -67.0943   
   58.44500     -67.1129   
   58.45000     -67.1314   
   58.45500     -67.1500   
   58.46000     -67.1686   
   58.46500     -67.1871   
   58.47000     -67.2057   
   58.47500     -67.2243   
   58.48000     -67.2429   
   58.48500     -67.2614   
   58.49000     -67.2800   
   58.49500     -67.2986   
   58.50000     -67.3172   
   58.50500     -67.3357   
   58.51000     -67.3543   
   58.51500     -67.3729   
   58.52000     -67.3915   
   58.52500     -67.4101   
   58.53000     -67.4286   
   58.53500     -67.4472   
   58.54000     -67.4658   
   58.54500     -67.4844   
   58.55000     -67.5030   
   58.55500     -67.5215   
   58.56000     -67.5401   
   58.56500     -67.5587   
   58.57000     -67.5773   
   58.57500     -67.5959   
   58.58000     -67.6145   
   58.58500     -67.6331   
   58.59000     -67.6516   
   58.59500     -67.6702   
   58.60000     -67.6888   
   58.60500     -67.7074   
   58.61000     -67.7260   
   58.61500     -67.7446   
   58.62000     -67.7632   
   58.62500     -67.7818   
   58.63000     -67.8004   
   58.63500     -67.8189   
   58.64000     -67.8375   
   58.64500     -67.8561   
   58.65000     -67.8747   
   58.65500     -67.8933   
   58.66000     -67.9119   
   58.66500     -67.9305   
   58.67000     -67.9491   
   58.67500     -67.9677   
   58.68000     -67.9863   
   58.68500     -68.0049   
   58.69000     -68.0235   
   58.69500     -68.0421   
   58.70000     -68.0607   
   58.70500     -68.0793   
   58.71000     -68.0979   
   58.71500     -68.1165   
   58.72000     -68.1351   
   58.72500     -68.1537   
   58.73000     -68.1723   
   58.73500     -68.1909   
   58.74000     -68.2095   
   58.74500     -68.2281   
   58.75000     -68.2467   
   58.75500     -68.2653   
   58.76000     -68.2839   
   58.76500     -68.3025   
   58.77000     -68.3211   
   58.77500     -68.3397   
   58.78000     -68.3583   
   58.78500     -68.3770   
   58.79000     -68.3956   
   58.79500     -68.4142   
   58.80000     -68.4328   
   58.80500     -68.4514   
   58.81000     -68.4700   
   58.81500     -68.4886   
   58.82000     -68.5072   
   58.82500     -68.5258   
   58.83000     -68.5445   
   58.83500     -68.5631   
   58.84000     -68.5817   
   58.84500     -68.6003   
   58.85000     -68.6189   
   58.85500     -68.6375   
   58.86000     -68.6562   
   58.86500     -68.6748   
   58.87000     -68.6934   
   58.87500     -68.7120   
   58.88000     -68.7306   
   58.88500     -68.7492   
   58.89000     -68.7679   
   58.89500     -68.7865   
   58.90000     -68.8051   
   58.90500     -68.8237   
   58.91000     -68.8424   
   58.91500     -68.8610   
   58.92000     -68.8796   
   58.92500     -68.8982   
   58.93000     -68.9168   
   58.93500     -68.9355   
   58.94000     -68.9541   
   58.94500     -68.9727   
   58.95000     -68.9914   
   58.95500     -69.0100   
   58.96000     -69.0286   
   58.96500     -69.0472   
   58.97000     -69.0659   
   58.97500     -69.0845   
   58.98000     -69.1031   
   58.98500     -69.1218   
   58.99000     -69.1404   
   58.99500     -69.1590   
   59.00000     -69.1777   
   59.00500     -69.1963   
   59.01000     -69.2149   
   59.01500     -69.2336   
   59.02000     -69.2522   
   59.02500     -69.2708   
   59.03000     -69.2895   
   59.03500     -69.3081   
   59.04000     -69.3267   
   59.04500     -69.3454   
   59.05000     -69.3640   
   59.05500     -69.3826   
   59.06000     -69.4013   
   59.06500     -69.4199   
   59.07000     -69.4386   
   59.07500     -69.4572   
   59.08000     -69.4758   
   59.08500     -69.4945   
   59.09000     -69.5131   
   59.09500     -69.5318   
   59.10000     -69.5504   
   59.10500     -69.5691   
   59.11000     -69.5877   
   59.11500     -69.6064   
   59.12000     -69.6250   
   59.12500     -69.6436   
   59.13000     -69.6623   
   59.13500     -69.6809   
   59.14000     -69.6996   
   59.14500     -69.7182   
   59.15000     -69.7369   
   59.15500     -69.7555   
   59.16000     -69.7742   
   59.16500     -69.7928   
   59.17000     -69.8115   
   59.17500     -69.8301   
   59.18000     -69.8488   
   59.18500     -69.8674   
   59.19000     -69.8861   
   59.19500     -69.9047   
   59.20000     -69.9234   
   59.20500     -69.9421   
   59.21000     -69.9607   
   59.21500     -69.9794   
   59.22000     -69.9980   
   59.22500     -70.0167   
   59.23000     -70.0353   
   59.23500     -70.0540   
   59.24000     -70.0727   
   59.24500     -70.0913   
   59.25000     -70.1100   
   59.25500     -70.1286   
   59.26000     -70.1473   
   59.26500     -70.1660   
   59.27000     -70.1846   
   59.27500     -70.2033   
   59.28000     -70.2219   
   59.28500     -70.2406   
   59.29000     -70.2593   
   59.29500     -70.2779   
   59.30000     -70.2966   
   59.30500     -70.3153   
   59.31000     -70.3339   
   59.31500     -70.3526   
   59.32000     -70.3713   
   59.32500     -70.3899   
   59.33000     -70.4086   
   59.33500     -70.4273   
   59.34000     -70.4459   
   59.34500     -70.4646   
   59.35000     -70.4833   
   59.35500     -70.5019   
   59.36000     -70.5206   
   59.36500     -70.5393   
   59.37000     -70.5580   
   59.37500     -70.5766   
   59.38000     -70.5953   
   59.38500     -70.6140   
   59.39000     -70.6327   
   59.39500     -70.6513   
   59.40000     -70.6700   
   59.40500     -70.6887   
   59.41000     -70.7074   
   59.41500     -70.7260   
   59.42000     -70.7447   
   59.42500     -70.7634   
   59.43000     -70.7821   
   59.43500     -70.8008   
   59.44000     -70.8194   
   59.44500     -70.8381   
   59.45000     -70.8568   
   59.45500     -70.8755   
   59.46000     -70.8942   
   59.46500     -70.9128   
   59.47000     -70.9315   
   59.47500     -70.9502   
   59.48000     -70.9689   
   59.48500     -70.9876   
   59.49000     -71.0063   
   59.49500     -71.0250   
   59.50000     -71.0436   
   59.50500     -71.0623   
   59.51000     -71.0810   
   59.51500     -71.0997   
   59.52000     -71.1184   
   59.52500     -71.1371   
   59.53000     -71.1558   
   59.53500     -71.1745   
   59.54000     -71.1931   
   59.54500     -71.2118   
   59.55000     -71.2305   
   59.55500     -71.2492   
   59.56000     -71.2679   
   59.56500     -71.2866   
   59.57000     -71.3053   
   59.57500     -71.3240   
   59.58000     -71.3427   
   59.58500     -71.3614   
   59.59000     -71.3801   
   59.59500     -71.3988   
   59.60000     -71.4175   
   59.60500     -71.4362   
   59.61000     -71.4549   
   59.61500     -71.4736   
   59.62000     -71.4923   
   59.62500     -71.5110   
   59.63000     -71.5297   
   59.63500     -71.5484   
   59.64000     -71.5671   
   59.64500     -71.5858   
   59.65000     -71.6045   
   59.65500     -71.6232   
   59.66000     -71.6419   
   59.66500     -71.6606   
   59.67000     -71.6793   
   59.67500     -71.6980   
   59.68000     -71.7167   
   59.68500     -71.7354   
   59.69000     -71.7541   
   59.69500     -71.7728   
   59.70000     -71.7915   
   59.70500     -71.8102   
   59.71000     -71.8289   
   59.71500     -71.8476   
   59.72000     -71.8664   
   59.72500     -71.8851   
   59.73000     -71.9038   
   59.73500     -71.9225   
   59.74000     -71.9412   
   59.74500     -71.9599   
   59.75000     -71.9786   
   59.75500     -71.9973   
   59.76000     -72.0160   
   59.76500     -72.0348   
   59.77000     -72.0535   
   59.77500     -72.0722   
   59.78000     -72.0909   
   59.78500     -72.1096   
   59.79000     -72.1283   
   59.79500     -72.1471   
   59.80000     -72.1658   
   59.80500     -72.1845   
   59.81000     -72.2032   
   59.81500     -72.2219   
   59.82000     -72.2407   
   59.82500     -72.2594   
   59.83000     -72.2781   
   59.83500     -72.2968   
   59.84000     -72.3155   
   59.84500     -72.3343   
   59.85000     -72.3530   
   59.85500     -72.3717   
   59.86000     -72.3904   
   59.86500     -72.4092   
   59.87000     -72.4279   
   59.87500     -72.4466   
   59.88000     -72.4653   
   59.88500     -72.4841   
   59.89000     -72.5028   
   59.89500     -72.5215   
   59.90000     -72.5402   
   59.90500     -72.5590   
   59.91000     -72.5777   
   59.91500     -72.5964   
   59.92000     -72.6152   
   59.92500     -72.6339   
   59.93000     -72.6526   
   59.93500     -72.6713   
   59.94000     -72.6901   
   59.94500     -72.7088   
   59.95000     -72.7275   
   59.95500     -72.7463   
   59.96000     -72.7650   
   59.96500     -72.7837   
   59.97000     -72.8025   
   59.97500     -72.8212   
   59.98000     -72.8400   
   59.98500     -72.8587   
   59.99000     -72.8774   
   59.99500     -72.8962   
   60.00000     -72.9149   
y

          ***** job concluded
1****** HSPICE -- C-2009.03-SP1 32-BIT (May 25 2009) winnt ******               
 ******  
 ** super cell 1 max current

  ******  job statistics summary tnom=  25.000 temp=  25.000 *****

  ******  HSPICE Threads Information  ******
  Command Line Threads Count                  :     1
  Available CPU Count                         :     8
  Actual Model Evaluation(Load) Threads Count :     1
  Actual Solver Threads Count                 :     1


  ******  Circuit Statistics  ******
  # nodes       =       7 # elements   =      16
  # resistors   =       6 # capacitors =       0 # inductors   =       0
  # mutual_inds =       0 # vccs       =       0 # vcvs        =       0
  # cccs        =       0 # ccvs       =       0 # volt_srcs   =       1
  # curr_srcs   =       3 # diodes     =       6 # bjts        =       0
  # jfets       =       0 # mosfets    =       0 # U elements  =       0
  # T elements  =       0 # W elements =       0 # B elements  =       0
  # S elements  =       0 # P elements =       0 # va device   =       0


  ******  Runtime Statistics (seconds)  ******

  analysis           time    # points   tot. iter  conv.iter
  op point           0.00           1           0
  dc sweep           0.38       12001       24075
  readin             0.08
  errchk             0.01
  setup              0.03
  output             0.04


           total memory used          353  kbytes
           total cpu time            0.56 seconds
           total elapsed time        0.60 seconds
           job started at     13:04:58 06/24/2015
           job ended   at     13:04:58 06/24/2015


 Init: hspice initialization file: C:\synopsys\Hspice_C-2009.03-SP1\hspice.ini
  lic: Release hspice token(s) 
