 ****** HSPICE -- C-2009.03-SP1 32-BIT (May 25 2009) winnt ******               
  Copyright (C) 2009 Synopsys, Inc. All Rights Reserved.                        
  Unpublished-rights reserved under US copyright laws.
  This program is protected by law and is subject to the 
  terms and conditions of the license agreement from Synopsys.
  Use of this program is your acceptance to be bound by the 
  license agreement. HSPICE is the trademark of Synopsys, Inc.
  Input File: C:\Users\Administrator\Desktop\MultiLevel\ncModel.sp              
  lic:  
  lic: FLEXlm: v8.5b 
  lic: USER:   Administrator        HOSTNAME: WIN-HBGPFB5Q4D3 
  lic: HOSTID: "002268384615 005056c00001 005056c00008" PID:      4908 
  lic: Using FLEXlm license file: 
  lic: C:\synopsys\hspice_2009-03.lic 
  lic: Checkout 1 hspice 
  lic: License/Maintenance for hspice will expire on 31-dec-2020/2007.9 
  lic: NODE LOCKED license on hostid "002268384615 005056c00001 005056c00008" 
  lic:   
 Init: read install configuration file: C:\synopsys\Hspice_C-2009.03-SP1\meta.cfg
 Init: hspice initialization file: C:\synopsys\Hspice_C-2009.03-SP1\hspice.ini




1****** HSPICE -- C-2009.03-SP1 32-BIT (May 25 2009) winnt ******               
 ******  
 ** super cell 1 max current

  ******  diode model parameters tnom=  25.000 temp=  25.000 *****
 ********************************************************
 *** common model parameters model name:   0:diode1  ****
 ********************************************************

     names  values   units     names  values   units     names  values   units
     -----  ------   -----     -----  ------   -----     -----  ------   -----

   1*** dc breakdown parameters ***
       vb=   0.    volts        ibv=   1.00m amps   

   2*** parasitic resistance parameters ***
       rs=   0.    ohms   

   3*** capacitance parameters ***
       fc= 500.00m              fcs= 500.00m                m= 500.00m        
     mjsw= 330.00m               pb= 800.00m volts        php= 800.00m volts  
       tt=   0.    secs         cjo=   0.    f/area       cjp=   0.    f/pj   

   4*** temperature effect parameters ***
     tlev=   0.               tlevc=   0.                 tcv=   0.    v/deg k
      trs=   0.    /deg         cta=   0.    /deg         ctp=   0.    /deg   
      xti=   3.00            xtitun=   3.00               keg=   1.00         
       eg=   1.11  ev          gap1= 702.00u  ev/deg     gap2=   1.11k  deg   
     ttt1=   0.    /deg        ttt2=   0.    /deg2        tm1=   0.    /deg   
      tm2=   0.    /deg2        tpb=   0.    v/deg k     tphp=   0.    v/deg k
     tref=  25.00   deg c 

   5*** noise parameters ***
       kf=   0.                  af=   1.00         

   ***  level   1  model parameters  ***

    level=   1.00                is= 641.52n amps         jsw=   0.    amps   
        n=  19.25               nbv=  19.25                ik=   0.    amp    
     area=   1.00                pj=   0.                 ikr=   0.    amp    
    expli=   0.    amps      explir=   0.    amps        jtun=   0.    amps   
   jtunsw=   0.    amps        ntun=  30.00         
  
 ********************************************************
 *** common model parameters model name:   0:diode2  ****
 ********************************************************

     names  values   units     names  values   units     names  values   units
     -----  ------   -----     -----  ------   -----     -----  ------   -----

   1*** dc breakdown parameters ***
       vb=   0.    volts        ibv=   1.00m amps   

   2*** parasitic resistance parameters ***
       rs=   0.    ohms   

   3*** capacitance parameters ***
       fc= 500.00m              fcs= 500.00m                m= 500.00m        
     mjsw= 330.00m               pb= 800.00m volts        php= 800.00m volts  
       tt=   0.    secs         cjo=   0.    f/area       cjp=   0.    f/pj   

   4*** temperature effect parameters ***
     tlev=   0.               tlevc=   0.                 tcv=   0.    v/deg k
      trs=   0.    /deg         cta=   0.    /deg         ctp=   0.    /deg   
      xti=   3.00            xtitun=   3.00               keg=   1.00         
       eg=   1.11  ev          gap1= 702.00u  ev/deg     gap2=   1.11k  deg   
     ttt1=   0.    /deg        ttt2=   0.    /deg2        tm1=   0.    /deg   
      tm2=   0.    /deg2        tpb=   0.    v/deg k     tphp=   0.    v/deg k
     tref=  25.00   deg c 

   5*** noise parameters ***
       kf=   0.                  af=   1.00         

   ***  level   1  model parameters  ***

    level=   1.00                is=   6.42u amps         jsw=   0.    amps   
        n= 962.28m              nbv= 962.28m               ik=   0.    amp    
     area=   1.00                pj=   0.                 ikr=   0.    amp    
    expli=   0.    amps      explir=   0.    amps        jtun=   0.    amps   
   jtunsw=   0.    amps        ntun=  30.00         
  
 ********************************************************
 *** common model parameters model name:   0:diode3  ****
 ********************************************************

     names  values   units     names  values   units     names  values   units
     -----  ------   -----     -----  ------   -----     -----  ------   -----

   1*** dc breakdown parameters ***
       vb=   0.    volts        ibv=   1.00m amps   

   2*** parasitic resistance parameters ***
       rs=   0.    ohms   

   3*** capacitance parameters ***
       fc= 500.00m              fcs= 500.00m                m= 500.00m        
     mjsw= 330.00m               pb= 800.00m volts        php= 800.00m volts  
       tt=   0.    secs         cjo=   0.    f/area       cjp=   0.    f/pj   

   4*** temperature effect parameters ***
     tlev=   0.               tlevc=   0.                 tcv=   0.    v/deg k
      trs=   0.    /deg         cta=   0.    /deg         ctp=   0.    /deg   
      xti=   3.00            xtitun=   3.00               keg=   1.00         
       eg=   1.11  ev          gap1= 702.00u  ev/deg     gap2=   1.11k  deg   
     ttt1=   0.    /deg        ttt2=   0.    /deg2        tm1=   0.    /deg   
      tm2=   0.    /deg2        tpb=   0.    v/deg k     tphp=   0.    v/deg k
     tref=  25.00   deg c 

   5*** noise parameters ***
       kf=   0.                  af=   1.00         

   ***  level   1  model parameters  ***

    level=   1.00                is= 712.01n amps         jsw=   0.    amps   
        n=  21.36               nbv=  21.36                ik=   0.    amp    
     area=   1.00                pj=   0.                 ikr=   0.    amp    
    expli=   0.    amps      explir=   0.    amps        jtun=   0.    amps   
   jtunsw=   0.    amps        ntun=  30.00         
  
 ********************************************************
 *** common model parameters model name:   0:diode4  ****
 ********************************************************

     names  values   units     names  values   units     names  values   units
     -----  ------   -----     -----  ------   -----     -----  ------   -----

   1*** dc breakdown parameters ***
       vb=   0.    volts        ibv=   1.00m amps   

   2*** parasitic resistance parameters ***
       rs=   0.    ohms   

   3*** capacitance parameters ***
       fc= 500.00m              fcs= 500.00m                m= 500.00m        
     mjsw= 330.00m               pb= 800.00m volts        php= 800.00m volts  
       tt=   0.    secs         cjo=   0.    f/area       cjp=   0.    f/pj   

   4*** temperature effect parameters ***
     tlev=   0.               tlevc=   0.                 tcv=   0.    v/deg k
      trs=   0.    /deg         cta=   0.    /deg         ctp=   0.    /deg   
      xti=   3.00            xtitun=   3.00               keg=   1.00         
       eg=   1.11  ev          gap1= 702.00u  ev/deg     gap2=   1.11k  deg   
     ttt1=   0.    /deg        ttt2=   0.    /deg2        tm1=   0.    /deg   
      tm2=   0.    /deg2        tpb=   0.    v/deg k     tphp=   0.    v/deg k
     tref=  25.00   deg c 

   5*** noise parameters ***
       kf=   0.                  af=   1.00         

   ***  level   1  model parameters  ***

    level=   1.00                is=   7.12u amps         jsw=   0.    amps   
        n=   1.07               nbv=   1.07                ik=   0.    amp    
     area=   1.00                pj=   0.                 ikr=   0.    amp    
    expli=   0.    amps      explir=   0.    amps        jtun=   0.    amps   
   jtunsw=   0.    amps        ntun=  30.00         
  
 ********************************************************
 *** common model parameters model name:   0:diode5  ****
 ********************************************************

     names  values   units     names  values   units     names  values   units
     -----  ------   -----     -----  ------   -----     -----  ------   -----

   1*** dc breakdown parameters ***
       vb=   0.    volts        ibv=   1.00m amps   

   2*** parasitic resistance parameters ***
       rs=   0.    ohms   

   3*** capacitance parameters ***
       fc= 500.00m              fcs= 500.00m                m= 500.00m        
     mjsw= 330.00m               pb= 800.00m volts        php= 800.00m volts  
       tt=   0.    secs         cjo=   0.    f/area       cjp=   0.    f/pj   

   4*** temperature effect parameters ***
     tlev=   0.               tlevc=   0.                 tcv=   0.    v/deg k
      trs=   0.    /deg         cta=   0.    /deg         ctp=   0.    /deg   
      xti=   3.00            xtitun=   3.00               keg=   1.00         
       eg=   1.11  ev          gap1= 702.00u  ev/deg     gap2=   1.11k  deg   
     ttt1=   0.    /deg        ttt2=   0.    /deg2        tm1=   0.    /deg   
      tm2=   0.    /deg2        tpb=   0.    v/deg k     tphp=   0.    v/deg k
     tref=  25.00   deg c 

   5*** noise parameters ***
       kf=   0.                  af=   1.00         

   ***  level   1  model parameters  ***

    level=   1.00                is= 646.47n amps         jsw=   0.    amps   
        n=  19.39               nbv=  19.39                ik=   0.    amp    
     area=   1.00                pj=   0.                 ikr=   0.    amp    
    expli=   0.    amps      explir=   0.    amps        jtun=   0.    amps   
   jtunsw=   0.    amps        ntun=  30.00         
  
 ********************************************************
 *** common model parameters model name:   0:diode6  ****
 ********************************************************

     names  values   units     names  values   units     names  values   units
     -----  ------   -----     -----  ------   -----     -----  ------   -----

   1*** dc breakdown parameters ***
       vb=   0.    volts        ibv=   1.00m amps   

   2*** parasitic resistance parameters ***
       rs=   0.    ohms   

   3*** capacitance parameters ***
       fc= 500.00m              fcs= 500.00m                m= 500.00m        
     mjsw= 330.00m               pb= 800.00m volts        php= 800.00m volts  
       tt=   0.    secs         cjo=   0.    f/area       cjp=   0.    f/pj   

   4*** temperature effect parameters ***
     tlev=   0.               tlevc=   0.                 tcv=   0.    v/deg k
      trs=   0.    /deg         cta=   0.    /deg         ctp=   0.    /deg   
      xti=   3.00            xtitun=   3.00               keg=   1.00         
       eg=   1.11  ev          gap1= 702.00u  ev/deg     gap2=   1.11k  deg   
     ttt1=   0.    /deg        ttt2=   0.    /deg2        tm1=   0.    /deg   
      tm2=   0.    /deg2        tpb=   0.    v/deg k     tphp=   0.    v/deg k
     tref=  25.00   deg c 

   5*** noise parameters ***
       kf=   0.                  af=   1.00         

   ***  level   1  model parameters  ***

    level=   1.00                is=   6.46u amps         jsw=   0.    amps   
        n= 969.71m              nbv= 969.71m               ik=   0.    amp    
     area=   1.00                pj=   0.                 ikr=   0.    amp    
    expli=   0.    amps      explir=   0.    amps        jtun=   0.    amps   
   jtunsw=   0.    amps        ntun=  30.00         
  
 **warning**  attempt to reference undefined node     0:out             
  in the definition of v(out,0)
   branch - output ignored

 
      
 *****************************************************************
 ******  option summary
 ******
 runlvl  = 3         bypass  = 2         
 ******  
 ** super cell 1 max current

  ******  dc transfer curves tnom=  25.000 temp=  25.000 *****
x

        volt    current    
                    vds    
    0.            5.0000   
    5.00000m      5.0000   
   10.00000m      5.0000   
   15.00000m      5.0000   
   20.00000m      5.0000   
   25.00000m      5.0000   
   30.00000m      5.0000   
   35.00000m      5.0000   
   40.00000m      5.0000   
   45.00000m      5.0000   
   50.00000m      5.0000   
   55.00000m      5.0000   
   60.00000m      5.0000   
   65.00000m      5.0000   
   70.00000m      5.0000   
   75.00000m      5.0000   
   80.00000m      5.0000   
   85.00000m      5.0000   
   90.00000m      5.0000   
   95.00000m      5.0000   
  100.00000m      5.0000   
  105.00000m      5.0000   
  110.00000m      5.0000   
  115.00000m      5.0000   
  120.00000m      5.0000   
  125.00000m      5.0000   
  130.00000m      5.0000   
  135.00000m      5.0000   
  140.00000m      5.0000   
  145.00000m      5.0000   
  150.00000m      5.0000   
  155.00000m      5.0000   
  160.00000m      5.0000   
  165.00000m      5.0000   
  170.00000m      5.0000   
  175.00000m      5.0000   
  180.00000m      5.0000   
  185.00000m      5.0000   
  190.00000m      5.0000   
  195.00000m      5.0000   
  200.00000m      5.0000   
  205.00000m      5.0000   
  210.00000m      5.0000   
  215.00000m      5.0000   
  220.00000m      5.0000   
  225.00000m      5.0000   
  230.00000m      5.0000   
  235.00000m      5.0000   
  240.00000m      5.0000   
  245.00000m      5.0000   
  250.00000m      5.0000   
  255.00000m      5.0000   
  260.00000m      5.0000   
  265.00000m      5.0000   
  270.00000m      5.0000   
  275.00000m      5.0000   
  280.00000m      5.0000   
  285.00000m      5.0000   
  290.00000m      5.0000   
  295.00000m      5.0000   
  300.00000m      5.0000   
  305.00000m      5.0000   
  310.00000m      5.0000   
  315.00000m      4.9999   
  320.00000m      4.9999   
  325.00000m      4.9999   
  330.00000m      4.9999   
  335.00000m      4.9999   
  340.00000m      4.9999   
  345.00000m      4.9999   
  350.00000m      4.9999   
  355.00000m      4.9999   
  360.00000m      4.9999   
  365.00000m      4.9999   
  370.00000m      4.9999   
  375.00000m      4.9999   
  380.00000m      4.9999   
  385.00000m      4.9999   
  390.00000m      4.9999   
  395.00000m      4.9999   
  400.00000m      4.9999   
  405.00000m      4.9999   
  410.00000m      4.9999   
  415.00000m      4.9999   
  420.00000m      4.9999   
  425.00000m      4.9999   
  430.00000m      4.9999   
  435.00000m      4.9999   
  440.00000m      4.9999   
  445.00000m      4.9999   
  450.00000m      4.9999   
  455.00000m      4.9999   
  460.00000m      4.9999   
  465.00000m      4.9999   
  470.00000m      4.9999   
  475.00000m      4.9999   
  480.00000m      4.9999   
  485.00000m      4.9999   
  490.00000m      4.9999   
  495.00000m      4.9999   
  500.00000m      4.9999   
  505.00000m      4.9999   
  510.00000m      4.9999   
  515.00000m      4.9999   
  520.00000m      4.9999   
  525.00000m      4.9999   
  530.00000m      4.9999   
  535.00000m      4.9999   
  540.00000m      4.9999   
  545.00000m      4.9999   
  550.00000m      4.9999   
  555.00000m      4.9999   
  560.00000m      4.9999   
  565.00000m      4.9999   
  570.00000m      4.9999   
  575.00000m      4.9999   
  580.00000m      4.9999   
  585.00000m      4.9999   
  590.00000m      4.9999   
  595.00000m      4.9999   
  600.00000m      4.9999   
  605.00000m      4.9999   
  610.00000m      4.9999   
  615.00000m      4.9999   
  620.00000m      4.9999   
  625.00000m      4.9999   
  630.00000m      4.9999   
  635.00000m      4.9999   
  640.00000m      4.9999   
  645.00000m      4.9999   
  650.00000m      4.9999   
  655.00000m      4.9999   
  660.00000m      4.9999   
  665.00000m      4.9999   
  670.00000m      4.9999   
  675.00000m      4.9999   
  680.00000m      4.9999   
  685.00000m      4.9999   
  690.00000m      4.9999   
  695.00000m      4.9999   
  700.00000m      4.9999   
  705.00000m      4.9999   
  710.00000m      4.9999   
  715.00000m      4.9999   
  720.00000m      4.9999   
  725.00000m      4.9999   
  730.00000m      4.9999   
  735.00000m      4.9999   
  740.00000m      4.9999   
  745.00000m      4.9999   
  750.00000m      4.9999   
  755.00000m      4.9999   
  760.00000m      4.9999   
  765.00000m      4.9999   
  770.00000m      4.9999   
  775.00000m      4.9999   
  780.00000m      4.9999   
  785.00000m      4.9999   
  790.00000m      4.9999   
  795.00000m      4.9999   
  800.00000m      4.9999   
  805.00000m      4.9999   
  810.00000m      4.9999   
  815.00000m      4.9999   
  820.00000m      4.9999   
  825.00000m      4.9999   
  830.00000m      4.9999   
  835.00000m      4.9999   
  840.00000m      4.9999   
  845.00000m      4.9999   
  850.00000m      4.9999   
  855.00000m      4.9999   
  860.00000m      4.9999   
  865.00000m      4.9999   
  870.00000m      4.9999   
  875.00000m      4.9999   
  880.00000m      4.9999   
  885.00000m      4.9999   
  890.00000m      4.9999   
  895.00000m      4.9999   
  900.00000m      4.9999   
  905.00000m      4.9999   
  910.00000m      4.9999   
  915.00000m      4.9999   
  920.00000m      4.9999   
  925.00000m      4.9999   
  930.00000m      4.9999   
  935.00000m      4.9999   
  940.00000m      4.9999   
  945.00000m      4.9999   
  950.00000m      4.9999   
  955.00000m      4.9999   
  960.00000m      4.9999   
  965.00000m      4.9999   
  970.00000m      4.9999   
  975.00000m      4.9999   
  980.00000m      4.9999   
  985.00000m      4.9999   
  990.00000m      4.9999   
  995.00000m      4.9999   
    1.00000       4.9999   
    1.00500       4.9999   
    1.01000       4.9999   
    1.01500       4.9999   
    1.02000       4.9999   
    1.02500       4.9999   
    1.03000       4.9999   
    1.03500       4.9999   
    1.04000       4.9999   
    1.04500       4.9999   
    1.05000       4.9999   
    1.05500       4.9999   
    1.06000       4.9999   
    1.06500       4.9999   
    1.07000       4.9999   
    1.07500       4.9999   
    1.08000       4.9999   
    1.08500       4.9999   
    1.09000       4.9999   
    1.09500       4.9999   
    1.10000       4.9999   
    1.10500       4.9999   
    1.11000       4.9999   
    1.11500       4.9999   
    1.12000       4.9999   
    1.12500       4.9999   
    1.13000       4.9999   
    1.13500       4.9999   
    1.14000       4.9999   
    1.14500       4.9999   
    1.15000       4.9999   
    1.15500       4.9999   
    1.16000       4.9999   
    1.16500       4.9999   
    1.17000       4.9999   
    1.17500       4.9999   
    1.18000       4.9999   
    1.18500       4.9999   
    1.19000       4.9999   
    1.19500       4.9999   
    1.20000       4.9999   
    1.20500       4.9999   
    1.21000       4.9999   
    1.21500       4.9999   
    1.22000       4.9999   
    1.22500       4.9999   
    1.23000       4.9999   
    1.23500       4.9999   
    1.24000       4.9999   
    1.24500       4.9999   
    1.25000       4.9999   
    1.25500       4.9999   
    1.26000       4.9999   
    1.26500       4.9999   
    1.27000       4.9999   
    1.27500       4.9999   
    1.28000       4.9999   
    1.28500       4.9999   
    1.29000       4.9999   
    1.29500       4.9999   
    1.30000       4.9999   
    1.30500       4.9999   
    1.31000       4.9999   
    1.31500       4.9999   
    1.32000       4.9999   
    1.32500       4.9999   
    1.33000       4.9999   
    1.33500       4.9999   
    1.34000       4.9999   
    1.34500       4.9999   
    1.35000       4.9999   
    1.35500       4.9999   
    1.36000       4.9999   
    1.36500       4.9999   
    1.37000       4.9999   
    1.37500       4.9999   
    1.38000       4.9999   
    1.38500       4.9999   
    1.39000       4.9999   
    1.39500       4.9999   
    1.40000       4.9999   
    1.40500       4.9999   
    1.41000       4.9999   
    1.41500       4.9999   
    1.42000       4.9999   
    1.42500       4.9999   
    1.43000       4.9999   
    1.43500       4.9999   
    1.44000       4.9999   
    1.44500       4.9999   
    1.45000       4.9999   
    1.45500       4.9998   
    1.46000       4.9998   
    1.46500       4.9998   
    1.47000       4.9998   
    1.47500       4.9998   
    1.48000       4.9998   
    1.48500       4.9998   
    1.49000       4.9998   
    1.49500       4.9998   
    1.50000       4.9998   
    1.50500       4.9998   
    1.51000       4.9998   
    1.51500       4.9998   
    1.52000       4.9998   
    1.52500       4.9998   
    1.53000       4.9998   
    1.53500       4.9998   
    1.54000       4.9998   
    1.54500       4.9998   
    1.55000       4.9998   
    1.55500       4.9998   
    1.56000       4.9998   
    1.56500       4.9998   
    1.57000       4.9998   
    1.57500       4.9998   
    1.58000       4.9998   
    1.58500       4.9998   
    1.59000       4.9998   
    1.59500       4.9998   
    1.60000       4.9998   
    1.60500       4.9998   
    1.61000       4.9998   
    1.61500       4.9998   
    1.62000       4.9998   
    1.62500       4.9998   
    1.63000       4.9998   
    1.63500       4.9998   
    1.64000       4.9998   
    1.64500       4.9998   
    1.65000       4.9998   
    1.65500       4.9998   
    1.66000       4.9998   
    1.66500       4.9998   
    1.67000       4.9998   
    1.67500       4.9998   
    1.68000       4.9998   
    1.68500       4.9998   
    1.69000       4.9998   
    1.69500       4.9998   
    1.70000       4.9998   
    1.70500       4.9998   
    1.71000       4.9998   
    1.71500       4.9998   
    1.72000       4.9998   
    1.72500       4.9998   
    1.73000       4.9998   
    1.73500       4.9998   
    1.74000       4.9998   
    1.74500       4.9998   
    1.75000       4.9998   
    1.75500       4.9998   
    1.76000       4.9998   
    1.76500       4.9998   
    1.77000       4.9998   
    1.77500       4.9998   
    1.78000       4.9998   
    1.78500       4.9998   
    1.79000       4.9998   
    1.79500       4.9998   
    1.80000       4.9998   
    1.80500       4.9998   
    1.81000       4.9998   
    1.81500       4.9998   
    1.82000       4.9998   
    1.82500       4.9998   
    1.83000       4.9998   
    1.83500       4.9998   
    1.84000       4.9998   
    1.84500       4.9998   
    1.85000       4.9998   
    1.85500       4.9997   
    1.86000       4.9997   
    1.86500       4.9997   
    1.87000       4.9997   
    1.87500       4.9997   
    1.88000       4.9997   
    1.88500       4.9997   
    1.89000       4.9997   
    1.89500       4.9997   
    1.90000       4.9997   
    1.90500       4.9997   
    1.91000       4.9997   
    1.91500       4.9997   
    1.92000       4.9997   
    1.92500       4.9997   
    1.93000       4.9997   
    1.93500       4.9997   
    1.94000       4.9997   
    1.94500       4.9997   
    1.95000       4.9997   
    1.95500       4.9997   
    1.96000       4.9997   
    1.96500       4.9997   
    1.97000       4.9997   
    1.97500       4.9997   
    1.98000       4.9997   
    1.98500       4.9997   
    1.99000       4.9997   
    1.99500       4.9997   
    2.00000       4.9997   
    2.00500       4.9997   
    2.01000       4.9997   
    2.01500       4.9997   
    2.02000       4.9997   
    2.02500       4.9997   
    2.03000       4.9997   
    2.03500       4.9997   
    2.04000       4.9997   
    2.04500       4.9997   
    2.05000       4.9997   
    2.05500       4.9997   
    2.06000       4.9997   
    2.06500       4.9997   
    2.07000       4.9997   
    2.07500       4.9997   
    2.08000       4.9996   
    2.08500       4.9996   
    2.09000       4.9996   
    2.09500       4.9996   
    2.10000       4.9996   
    2.10500       4.9996   
    2.11000       4.9996   
    2.11500       4.9996   
    2.12000       4.9996   
    2.12500       4.9996   
    2.13000       4.9996   
    2.13500       4.9996   
    2.14000       4.9996   
    2.14500       4.9996   
    2.15000       4.9996   
    2.15500       4.9996   
    2.16000       4.9996   
    2.16500       4.9996   
    2.17000       4.9996   
    2.17500       4.9996   
    2.18000       4.9996   
    2.18500       4.9996   
    2.19000       4.9996   
    2.19500       4.9996   
    2.20000       4.9996   
    2.20500       4.9996   
    2.21000       4.9996   
    2.21500       4.9996   
    2.22000       4.9996   
    2.22500       4.9996   
    2.23000       4.9996   
    2.23500       4.9996   
    2.24000       4.9995   
    2.24500       4.9995   
    2.25000       4.9995   
    2.25500       4.9995   
    2.26000       4.9995   
    2.26500       4.9995   
    2.27000       4.9995   
    2.27500       4.9995   
    2.28000       4.9995   
    2.28500       4.9995   
    2.29000       4.9995   
    2.29500       4.9995   
    2.30000       4.9995   
    2.30500       4.9995   
    2.31000       4.9995   
    2.31500       4.9995   
    2.32000       4.9995   
    2.32500       4.9995   
    2.33000       4.9995   
    2.33500       4.9995   
    2.34000       4.9995   
    2.34500       4.9995   
    2.35000       4.9995   
    2.35500       4.9995   
    2.36000       4.9994   
    2.36500       4.9994   
    2.37000       4.9994   
    2.37500       4.9994   
    2.38000       4.9994   
    2.38500       4.9994   
    2.39000       4.9994   
    2.39500       4.9994   
    2.40000       4.9994   
    2.40500       4.9994   
    2.41000       4.9994   
    2.41500       4.9994   
    2.42000       4.9994   
    2.42500       4.9994   
    2.43000       4.9994   
    2.43500       4.9994   
    2.44000       4.9994   
    2.44500       4.9994   
    2.45000       4.9994   
    2.45500       4.9993   
    2.46000       4.9993   
    2.46500       4.9993   
    2.47000       4.9993   
    2.47500       4.9993   
    2.48000       4.9993   
    2.48500       4.9993   
    2.49000       4.9993   
    2.49500       4.9993   
    2.50000       4.9993   
    2.50500       4.9993   
    2.51000       4.9993   
    2.51500       4.9993   
    2.52000       4.9993   
    2.52500       4.9993   
    2.53000       4.9993   
    2.53500       4.9993   
    2.54000       4.9992   
    2.54500       4.9992   
    2.55000       4.9992   
    2.55500       4.9992   
    2.56000       4.9992   
    2.56500       4.9992   
    2.57000       4.9992   
    2.57500       4.9992   
    2.58000       4.9992   
    2.58500       4.9992   
    2.59000       4.9992   
    2.59500       4.9992   
    2.60000       4.9992   
    2.60500       4.9992   
    2.61000       4.9991   
    2.61500       4.9991   
    2.62000       4.9991   
    2.62500       4.9991   
    2.63000       4.9991   
    2.63500       4.9991   
    2.64000       4.9991   
    2.64500       4.9991   
    2.65000       4.9991   
    2.65500       4.9991   
    2.66000       4.9991   
    2.66500       4.9991   
    2.67000       4.9990   
    2.67500       4.9990   
    2.68000       4.9990   
    2.68500       4.9990   
    2.69000       4.9990   
    2.69500       4.9990   
    2.70000       4.9990   
    2.70500       4.9990   
    2.71000       4.9990   
    2.71500       4.9990   
    2.72000       4.9990   
    2.72500       4.9989   
    2.73000       4.9989   
    2.73500       4.9989   
    2.74000       4.9989   
    2.74500       4.9989   
    2.75000       4.9989   
    2.75500       4.9989   
    2.76000       4.9989   
    2.76500       4.9989   
    2.77000       4.9989   
    2.77500       4.9988   
    2.78000       4.9988   
    2.78500       4.9988   
    2.79000       4.9988   
    2.79500       4.9988   
    2.80000       4.9988   
    2.80500       4.9988   
    2.81000       4.9988   
    2.81500       4.9988   
    2.82000       4.9987   
    2.82500       4.9987   
    2.83000       4.9987   
    2.83500       4.9987   
    2.84000       4.9987   
    2.84500       4.9987   
    2.85000       4.9987   
    2.85500       4.9987   
    2.86000       4.9987   
    2.86500       4.9986   
    2.87000       4.9986   
    2.87500       4.9986   
    2.88000       4.9986   
    2.88500       4.9986   
    2.89000       4.9986   
    2.89500       4.9986   
    2.90000       4.9985   
    2.90500       4.9985   
    2.91000       4.9985   
    2.91500       4.9985   
    2.92000       4.9985   
    2.92500       4.9985   
    2.93000       4.9985   
    2.93500       4.9984   
    2.94000       4.9984   
    2.94500       4.9984   
    2.95000       4.9984   
    2.95500       4.9984   
    2.96000       4.9984   
    2.96500       4.9984   
    2.97000       4.9983   
    2.97500       4.9983   
    2.98000       4.9983   
    2.98500       4.9983   
    2.99000       4.9983   
    2.99500       4.9983   
    3.00000       4.9982   
    3.00500       4.9982   
    3.01000       4.9982   
    3.01500       4.9982   
    3.02000       4.9982   
    3.02500       4.9982   
    3.03000       4.9981   
    3.03500       4.9981   
    3.04000       4.9981   
    3.04500       4.9981   
    3.05000       4.9981   
    3.05500       4.9981   
    3.06000       4.9980   
    3.06500       4.9980   
    3.07000       4.9980   
    3.07500       4.9980   
    3.08000       4.9980   
    3.08500       4.9979   
    3.09000       4.9979   
    3.09500       4.9979   
    3.10000       4.9979   
    3.10500       4.9979   
    3.11000       4.9978   
    3.11500       4.9978   
    3.12000       4.9978   
    3.12500       4.9978   
    3.13000       4.9978   
    3.13500       4.9977   
    3.14000       4.9977   
    3.14500       4.9977   
    3.15000       4.9977   
    3.15500       4.9976   
    3.16000       4.9976   
    3.16500       4.9976   
    3.17000       4.9976   
    3.17500       4.9975   
    3.18000       4.9975   
    3.18500       4.9975   
    3.19000       4.9975   
    3.19500       4.9975   
    3.20000       4.9974   
    3.20500       4.9974   
    3.21000       4.9974   
    3.21500       4.9974   
    3.22000       4.9973   
    3.22500       4.9973   
    3.23000       4.9973   
    3.23500       4.9972   
    3.24000       4.9972   
    3.24500       4.9972   
    3.25000       4.9972   
    3.25500       4.9971   
    3.26000       4.9971   
    3.26500       4.9971   
    3.27000       4.9971   
    3.27500       4.9970   
    3.28000       4.9970   
    3.28500       4.9970   
    3.29000       4.9969   
    3.29500       4.9969   
    3.30000       4.9969   
    3.30500       4.9968   
    3.31000       4.9968   
    3.31500       4.9968   
    3.32000       4.9968   
    3.32500       4.9967   
    3.33000       4.9967   
    3.33500       4.9967   
    3.34000       4.9966   
    3.34500       4.9966   
    3.35000       4.9966   
    3.35500       4.9965   
    3.36000       4.9965   
    3.36500       4.9965   
    3.37000       4.9964   
    3.37500       4.9964   
    3.38000       4.9964   
    3.38500       4.9963   
    3.39000       4.9963   
    3.39500       4.9962   
    3.40000       4.9962   
    3.40500       4.9962   
    3.41000       4.9961   
    3.41500       4.9961   
    3.42000       4.9961   
    3.42500       4.9960   
    3.43000       4.9960   
    3.43500       4.9959   
    3.44000       4.9959   
    3.44500       4.9959   
    3.45000       4.9958   
    3.45500       4.9958   
    3.46000       4.9957   
    3.46500       4.9957   
    3.47000       4.9956   
    3.47500       4.9956   
    3.48000       4.9956   
    3.48500       4.9955   
    3.49000       4.9955   
    3.49500       4.9954   
    3.50000       4.9954   
    3.50500       4.9953   
    3.51000       4.9953   
    3.51500       4.9952   
    3.52000       4.9952   
    3.52500       4.9952   
    3.53000       4.9951   
    3.53500       4.9951   
    3.54000       4.9950   
    3.54500       4.9950   
    3.55000       4.9949   
    3.55500       4.9949   
    3.56000       4.9948   
    3.56500       4.9948   
    3.57000       4.9947   
    3.57500       4.9947   
    3.58000       4.9946   
    3.58500       4.9945   
    3.59000       4.9945   
    3.59500       4.9944   
    3.60000       4.9944   
    3.60500       4.9943   
    3.61000       4.9943   
    3.61500       4.9942   
    3.62000       4.9942   
    3.62500       4.9941   
    3.63000       4.9940   
    3.63500       4.9940   
    3.64000       4.9939   
    3.64500       4.9939   
    3.65000       4.9938   
    3.65500       4.9937   
    3.66000       4.9937   
    3.66500       4.9936   
    3.67000       4.9935   
    3.67500       4.9935   
    3.68000       4.9934   
    3.68500       4.9934   
    3.69000       4.9933   
    3.69500       4.9932   
    3.70000       4.9932   
    3.70500       4.9931   
    3.71000       4.9930   
    3.71500       4.9929   
    3.72000       4.9929   
    3.72500       4.9928   
    3.73000       4.9927   
    3.73500       4.9927   
    3.74000       4.9926   
    3.74500       4.9925   
    3.75000       4.9924   
    3.75500       4.9924   
    3.76000       4.9923   
    3.76500       4.9922   
    3.77000       4.9921   
    3.77500       4.9921   
    3.78000       4.9920   
    3.78500       4.9919   
    3.79000       4.9918   
    3.79500       4.9917   
    3.80000       4.9916   
    3.80500       4.9916   
    3.81000       4.9915   
    3.81500       4.9914   
    3.82000       4.9913   
    3.82500       4.9912   
    3.83000       4.9911   
    3.83500       4.9910   
    3.84000       4.9910   
    3.84500       4.9909   
    3.85000       4.9908   
    3.85500       4.9907   
    3.86000       4.9906   
    3.86500       4.9905   
    3.87000       4.9904   
    3.87500       4.9903   
    3.88000       4.9902   
    3.88500       4.9901   
    3.89000       4.9900   
    3.89500       4.9899   
    3.90000       4.9898   
    3.90500       4.9897   
    3.91000       4.9896   
    3.91500       4.9895   
    3.92000       4.9894   
    3.92500       4.9893   
    3.93000       4.9892   
    3.93500       4.9891   
    3.94000       4.9890   
    3.94500       4.9889   
    3.95000       4.9887   
    3.95500       4.9886   
    3.96000       4.9885   
    3.96500       4.9884   
    3.97000       4.9883   
    3.97500       4.9882   
    3.98000       4.9881   
    3.98500       4.9879   
    3.99000       4.9878   
    3.99500       4.9877   
    4.00000       4.9876   
    4.00500       4.9874   
    4.01000       4.9873   
    4.01500       4.9872   
    4.02000       4.9871   
    4.02500       4.9869   
    4.03000       4.9868   
    4.03500       4.9867   
    4.04000       4.9865   
    4.04500       4.9864   
    4.05000       4.9863   
    4.05500       4.9861   
    4.06000       4.9860   
    4.06500       4.9858   
    4.07000       4.9857   
    4.07500       4.9856   
    4.08000       4.9854   
    4.08500       4.9853   
    4.09000       4.9851   
    4.09500       4.9850   
    4.10000       4.9848   
    4.10500       4.9847   
    4.11000       4.9845   
    4.11500       4.9844   
    4.12000       4.9842   
    4.12500       4.9840   
    4.13000       4.9839   
    4.13500       4.9837   
    4.14000       4.9836   
    4.14500       4.9834   
    4.15000       4.9832   
    4.15500       4.9831   
    4.16000       4.9829   
    4.16500       4.9827   
    4.17000       4.9825   
    4.17500       4.9824   
    4.18000       4.9822   
    4.18500       4.9820   
    4.19000       4.9818   
    4.19500       4.9816   
    4.20000       4.9815   
    4.20500       4.9813   
    4.21000       4.9811   
    4.21500       4.9809   
    4.22000       4.9807   
    4.22500       4.9805   
    4.23000       4.9803   
    4.23500       4.9801   
    4.24000       4.9799   
    4.24500       4.9797   
    4.25000       4.9795   
    4.25500       4.9793   
    4.26000       4.9791   
    4.26500       4.9789   
    4.27000       4.9787   
    4.27500       4.9785   
    4.28000       4.9782   
    4.28500       4.9780   
    4.29000       4.9778   
    4.29500       4.9776   
    4.30000       4.9774   
    4.30500       4.9771   
    4.31000       4.9769   
    4.31500       4.9767   
    4.32000       4.9764   
    4.32500       4.9762   
    4.33000       4.9760   
    4.33500       4.9757   
    4.34000       4.9755   
    4.34500       4.9752   
    4.35000       4.9750   
    4.35500       4.9747   
    4.36000       4.9745   
    4.36500       4.9742   
    4.37000       4.9740   
    4.37500       4.9737   
    4.38000       4.9734   
    4.38500       4.9732   
    4.39000       4.9729   
    4.39500       4.9726   
    4.40000       4.9723   
    4.40500       4.9721   
    4.41000       4.9718   
    4.41500       4.9715   
    4.42000       4.9712   
    4.42500       4.9709   
    4.43000       4.9706   
    4.43500       4.9703   
    4.44000       4.9700   
    4.44500       4.9697   
    4.45000       4.9694   
    4.45500       4.9691   
    4.46000       4.9688   
    4.46500       4.9685   
    4.47000       4.9682   
    4.47500       4.9679   
    4.48000       4.9676   
    4.48500       4.9672   
    4.49000       4.9669   
    4.49500       4.9666   
    4.50000       4.9662   
    4.50500       4.9659   
    4.51000       4.9655   
    4.51500       4.9652   
    4.52000       4.9649   
    4.52500       4.9645   
    4.53000       4.9641   
    4.53500       4.9638   
    4.54000       4.9634   
    4.54500       4.9631   
    4.55000       4.9627   
    4.55500       4.9623   
    4.56000       4.9619   
    4.56500       4.9615   
    4.57000       4.9612   
    4.57500       4.9608   
    4.58000       4.9604   
    4.58500       4.9600   
    4.59000       4.9596   
    4.59500       4.9592   
    4.60000       4.9588   
    4.60500       4.9583   
    4.61000       4.9579   
    4.61500       4.9575   
    4.62000       4.9571   
    4.62500       4.9567   
    4.63000       4.9562   
    4.63500       4.9558   
    4.64000       4.9553   
    4.64500       4.9549   
    4.65000       4.9544   
    4.65500       4.9540   
    4.66000       4.9535   
    4.66500       4.9530   
    4.67000       4.9526   
    4.67500       4.9521   
    4.68000       4.9516   
    4.68500       4.9511   
    4.69000       4.9506   
    4.69500       4.9502   
    4.70000       4.9497   
    4.70500       4.9491   
    4.71000       4.9486   
    4.71500       4.9481   
    4.72000       4.9476   
    4.72500       4.9471   
    4.73000       4.9465   
    4.73500       4.9460   
    4.74000       4.9455   
    4.74500       4.9449   
    4.75000       4.9444   
    4.75500       4.9438   
    4.76000       4.9433   
    4.76500       4.9427   
    4.77000       4.9421   
    4.77500       4.9415   
    4.78000       4.9409   
    4.78500       4.9404   
    4.79000       4.9398   
    4.79500       4.9392   
    4.80000       4.9386   
    4.80500       4.9379   
    4.81000       4.9373   
    4.81500       4.9367   
    4.82000       4.9361   
    4.82500       4.9354   
    4.83000       4.9348   
    4.83500       4.9341   
    4.84000       4.9335   
    4.84500       4.9328   
    4.85000       4.9321   
    4.85500       4.9314   
    4.86000       4.9308   
    4.86500       4.9301   
    4.87000       4.9294   
    4.87500       4.9287   
    4.88000       4.9280   
    4.88500       4.9272   
    4.89000       4.9265   
    4.89500       4.9258   
    4.90000       4.9250   
    4.90500       4.9243   
    4.91000       4.9235   
    4.91500       4.9228   
    4.92000       4.9220   
    4.92500       4.9212   
    4.93000       4.9204   
    4.93500       4.9196   
    4.94000       4.9188   
    4.94500       4.9180   
    4.95000       4.9172   
    4.95500       4.9164   
    4.96000       4.9156   
    4.96500       4.9147   
    4.97000       4.9139   
    4.97500       4.9130   
    4.98000       4.9121   
    4.98500       4.9113   
    4.99000       4.9104   
    4.99500       4.9095   
    5.00000       4.9086   
    5.00500       4.9077   
    5.01000       4.9068   
    5.01500       4.9058   
    5.02000       4.9049   
    5.02500       4.9040   
    5.03000       4.9030   
    5.03500       4.9020   
    5.04000       4.9011   
    5.04500       4.9001   
    5.05000       4.8991   
    5.05500       4.8981   
    5.06000       4.8971   
    5.06500       4.8961   
    5.07000       4.8950   
    5.07500       4.8940   
    5.08000       4.8929   
    5.08500       4.8919   
    5.09000       4.8908   
    5.09500       4.8897   
    5.10000       4.8886   
    5.10500       4.8875   
    5.11000       4.8864   
    5.11500       4.8853   
    5.12000       4.8842   
    5.12500       4.8830   
    5.13000       4.8819   
    5.13500       4.8807   
    5.14000       4.8795   
    5.14500       4.8783   
    5.15000       4.8771   
    5.15500       4.8759   
    5.16000       4.8747   
    5.16500       4.8734   
    5.17000       4.8722   
    5.17500       4.8709   
    5.18000       4.8697   
    5.18500       4.8684   
    5.19000       4.8671   
    5.19500       4.8658   
    5.20000       4.8644   
    5.20500       4.8631   
    5.21000       4.8618   
    5.21500       4.8604   
    5.22000       4.8590   
    5.22500       4.8576   
    5.23000       4.8562   
    5.23500       4.8548   
    5.24000       4.8534   
    5.24500       4.8520   
    5.25000       4.8505   
    5.25500       4.8490   
    5.26000       4.8476   
    5.26500       4.8461   
    5.27000       4.8446   
    5.27500       4.8430   
    5.28000       4.8415   
    5.28500       4.8399   
    5.29000       4.8384   
    5.29500       4.8368   
    5.30000       4.8352   
    5.30500       4.8336   
    5.31000       4.8320   
    5.31500       4.8303   
    5.32000       4.8287   
    5.32500       4.8270   
    5.33000       4.8253   
    5.33500       4.8236   
    5.34000       4.8219   
    5.34500       4.8201   
    5.35000       4.8184   
    5.35500       4.8166   
    5.36000       4.8148   
    5.36500       4.8130   
    5.37000       4.8112   
    5.37500       4.8094   
    5.38000       4.8075   
    5.38500       4.8057   
    5.39000       4.8038   
    5.39500       4.8019   
    5.40000       4.7999   
    5.40500       4.7980   
    5.41000       4.7961   
    5.41500       4.7941   
    5.42000       4.7921   
    5.42500       4.7901   
    5.43000       4.7880   
    5.43500       4.7860   
    5.44000       4.7839   
    5.44500       4.7818   
    5.45000       4.7797   
    5.45500       4.7776   
    5.46000       4.7755   
    5.46500       4.7733   
    5.47000       4.7711   
    5.47500       4.7689   
    5.48000       4.7667   
    5.48500       4.7645   
    5.49000       4.7622   
    5.49500       4.7599   
    5.50000       4.7576   
    5.50500       4.7553   
    5.51000       4.7529   
    5.51500       4.7506   
    5.52000       4.7482   
    5.52500       4.7458   
    5.53000       4.7434   
    5.53500       4.7409   
    5.54000       4.7384   
    5.54500       4.7359   
    5.55000       4.7334   
    5.55500       4.7309   
    5.56000       4.7283   
    5.56500       4.7257   
    5.57000       4.7231   
    5.57500       4.7205   
    5.58000       4.7178   
    5.58500       4.7152   
    5.59000       4.7125   
    5.59500       4.7098   
    5.60000       4.7070   
    5.60500       4.7042   
    5.61000       4.7014   
    5.61500       4.6986   
    5.62000       4.6958   
    5.62500       4.6929   
    5.63000       4.6900   
    5.63500       4.6871   
    5.64000       4.6842   
    5.64500       4.6812   
    5.65000       4.6782   
    5.65500       4.6752   
    5.66000       4.6722   
    5.66500       4.6691   
    5.67000       4.6660   
    5.67500       4.6629   
    5.68000       4.6597   
    5.68500       4.6566   
    5.69000       4.6534   
    5.69500       4.6502   
    5.70000       4.6469   
    5.70500       4.6436   
    5.71000       4.6403   
    5.71500       4.6370   
    5.72000       4.6336   
    5.72500       4.6303   
    5.73000       4.6269   
    5.73500       4.6234   
    5.74000       4.6199   
    5.74500       4.6165   
    5.75000       4.6129   
    5.75500       4.6094   
    5.76000       4.6058   
    5.76500       4.6022   
    5.77000       4.5986   
    5.77500       4.5949   
    5.78000       4.5912   
    5.78500       4.5875   
    5.79000       4.5837   
    5.79500       4.5800   
    5.80000       4.5762   
    5.80500       4.5723   
    5.81000       4.5685   
    5.81500       4.5646   
    5.82000       4.5606   
    5.82500       4.5567   
    5.83000       4.5527   
    5.83500       4.5487   
    5.84000       4.5447   
    5.84500       4.5406   
    5.85000       4.5365   
    5.85500       4.5324   
    5.86000       4.5282   
    5.86500       4.5240   
    5.87000       4.5198   
    5.87500       4.5156   
    5.88000       4.5113   
    5.88500       4.5070   
    5.89000       4.5026   
    5.89500       4.4983   
    5.90000       4.4939   
    5.90500       4.4895   
    5.91000       4.4850   
    5.91500       4.4805   
    5.92000       4.4760   
    5.92500       4.4715   
    5.93000       4.4669   
    5.93500       4.4623   
    5.94000       4.4577   
    5.94500       4.4530   
    5.95000       4.4483   
    5.95500       4.4436   
    5.96000       4.4389   
    5.96500       4.4341   
    5.97000       4.4293   
    5.97500       4.4245   
    5.98000       4.4196   
    5.98500       4.4148   
    5.99000       4.4099   
    5.99500       4.4049   
    6.00000       4.4000   
    6.00500       4.3950   
    6.01000       4.3900   
    6.01500       4.3849   
    6.02000       4.3799   
    6.02500       4.3748   
    6.03000       4.3697   
    6.03500       4.3646   
    6.04000       4.3594   
    6.04500       4.3542   
    6.05000       4.3490   
    6.05500       4.3438   
    6.06000       4.3386   
    6.06500       4.3333   
    6.07000       4.3281   
    6.07500       4.3228   
    6.08000       4.3175   
    6.08500       4.3121   
    6.09000       4.3068   
    6.09500       4.3014   
    6.10000       4.2961   
    6.10500       4.2907   
    6.11000       4.2853   
    6.11500       4.2799   
    6.12000       4.2745   
    6.12500       4.2691   
    6.13000       4.2636   
    6.13500       4.2582   
    6.14000       4.2528   
    6.14500       4.2473   
    6.15000       4.2419   
    6.15500       4.2364   
    6.16000       4.2310   
    6.16500       4.2256   
    6.17000       4.2202   
    6.17500       4.2147   
    6.18000       4.2093   
    6.18500       4.2040   
    6.19000       4.1986   
    6.19500       4.1932   
    6.20000       4.1879   
    6.20500       4.1826   
    6.21000       4.1773   
    6.21500       4.1720   
    6.22000       4.1668   
    6.22500       4.1616   
    6.23000       4.1564   
    6.23500       4.1513   
    6.24000       4.1462   
    6.24500       4.1412   
    6.25000       4.1362   
    6.25500       4.1312   
    6.26000       4.1264   
    6.26500       4.1215   
    6.27000       4.1168   
    6.27500       4.1121   
    6.28000       4.1075   
    6.28500       4.1029   
    6.29000       4.0985   
    6.29500       4.0941   
    6.30000       4.0898   
    6.30500       4.0856   
    6.31000       4.0815   
    6.31500       4.0775   
    6.32000       4.0736   
    6.32500       4.0698   
    6.33000       4.0661   
    6.33500       4.0625   
    6.34000       4.0590   
    6.34500       4.0556   
    6.35000       4.0524   
    6.35500       4.0493   
    6.36000       4.0463   
    6.36500       4.0434   
    6.37000       4.0406   
    6.37500       4.0380   
    6.38000       4.0355   
    6.38500       4.0331   
    6.39000       4.0308   
    6.39500       4.0287   
    6.40000       4.0266   
    6.40500       4.0247   
    6.41000       4.0229   
    6.41500       4.0212   
    6.42000       4.0196   
    6.42500       4.0181   
    6.43000       4.0167   
    6.43500       4.0154   
    6.44000       4.0142   
    6.44500       4.0130   
    6.45000       4.0120   
    6.45500       4.0110   
    6.46000       4.0101   
    6.46500       4.0092   
    6.47000       4.0085   
    6.47500       4.0078   
    6.48000       4.0071   
    6.48500       4.0065   
    6.49000       4.0059   
    6.49500       4.0054   
    6.50000       4.0050   
    6.50500       4.0045   
    6.51000       4.0041   
    6.51500       4.0038   
    6.52000       4.0034   
    6.52500       4.0031   
    6.53000       4.0029   
    6.53500       4.0026   
    6.54000       4.0024   
    6.54500       4.0022   
    6.55000       4.0020   
    6.55500       4.0018   
    6.56000       4.0016   
    6.56500       4.0015   
    6.57000       4.0013   
    6.57500       4.0012   
    6.58000       4.0011   
    6.58500       4.0010   
    6.59000       4.0009   
    6.59500       4.0008   
    6.60000       4.0008   
    6.60500       4.0007   
    6.61000       4.0006   
    6.61500       4.0006   
    6.62000       4.0005   
    6.62500       4.0005   
    6.63000       4.0004   
    6.63500       4.0004   
    6.64000       4.0003   
    6.64500       4.0003   
    6.65000       4.0003   
    6.65500       4.0003   
    6.66000       4.0002   
    6.66500       4.0002   
    6.67000       4.0002   
    6.67500       4.0002   
    6.68000       4.0002   
    6.68500       4.0001   
    6.69000       4.0001   
    6.69500       4.0001   
    6.70000       4.0001   
    6.70500       4.0001   
    6.71000       4.0001   
    6.71500       4.0001   
    6.72000       4.0001   
    6.72500       4.0001   
    6.73000       4.0001   
    6.73500       4.0000   
    6.74000       4.0000   
    6.74500       4.0000   
    6.75000       4.0000   
    6.75500       4.0000   
    6.76000       4.0000   
    6.76500       4.0000   
    6.77000       4.0000   
    6.77500       4.0000   
    6.78000       4.0000   
    6.78500       4.0000   
    6.79000       4.0000   
    6.79500       4.0000   
    6.80000       4.0000   
    6.80500       4.0000   
    6.81000       4.0000   
    6.81500       4.0000   
    6.82000       4.0000   
    6.82500       4.0000   
    6.83000       4.0000   
    6.83500       4.0000   
    6.84000       4.0000   
    6.84500       4.0000   
    6.85000       4.0000   
    6.85500       4.0000   
    6.86000       4.0000   
    6.86500       4.0000   
    6.87000       4.0000   
    6.87500       4.0000   
    6.88000       4.0000   
    6.88500       4.0000   
    6.89000       4.0000   
    6.89500       4.0000   
    6.90000       4.0000   
    6.90500       4.0000   
    6.91000       4.0000   
    6.91500       4.0000   
    6.92000       4.0000   
    6.92500       4.0000   
    6.93000       4.0000   
    6.93500       4.0000   
    6.94000       4.0000   
    6.94500       4.0000   
    6.95000       4.0000   
    6.95500       4.0000   
    6.96000       4.0000   
    6.96500       4.0000   
    6.97000       4.0000   
    6.97500       4.0000   
    6.98000       4.0000   
    6.98500       4.0000   
    6.99000       4.0000   
    6.99500       4.0000   
    7.00000       4.0000   
    7.00500       4.0000   
    7.01000       4.0000   
    7.01500       4.0000   
    7.02000       4.0000   
    7.02500       4.0000   
    7.03000       4.0000   
    7.03500       4.0000   
    7.04000       4.0000   
    7.04500       4.0000   
    7.05000       4.0000   
    7.05500       4.0000   
    7.06000       4.0000   
    7.06500       4.0000   
    7.07000       4.0000   
    7.07500       4.0000   
    7.08000       4.0000   
    7.08500       4.0000   
    7.09000       4.0000   
    7.09500       4.0000   
    7.10000       4.0000   
    7.10500       4.0000   
    7.11000       4.0000   
    7.11500       4.0000   
    7.12000       4.0000   
    7.12500       4.0000   
    7.13000       4.0000   
    7.13500       4.0000   
    7.14000       4.0000   
    7.14500       4.0000   
    7.15000       4.0000   
    7.15500       4.0000   
    7.16000       4.0000   
    7.16500       4.0000   
    7.17000       4.0000   
    7.17500       4.0000   
    7.18000       4.0000   
    7.18500       4.0000   
    7.19000       4.0000   
    7.19500       4.0000   
    7.20000       4.0000   
    7.20500       4.0000   
    7.21000       4.0000   
    7.21500       4.0000   
    7.22000       4.0000   
    7.22500       4.0000   
    7.23000       4.0000   
    7.23500       4.0000   
    7.24000       4.0000   
    7.24500       4.0000   
    7.25000       4.0000   
    7.25500       4.0000   
    7.26000       4.0000   
    7.26500       4.0000   
    7.27000       4.0000   
    7.27500       4.0000   
    7.28000       4.0000   
    7.28500       4.0000   
    7.29000       4.0000   
    7.29500       4.0000   
    7.30000       4.0000   
    7.30500       4.0000   
    7.31000       4.0000   
    7.31500       4.0000   
    7.32000       4.0000   
    7.32500       4.0000   
    7.33000       4.0000   
    7.33500       4.0000   
    7.34000       4.0000   
    7.34500       4.0000   
    7.35000       4.0000   
    7.35500       4.0000   
    7.36000       4.0000   
    7.36500       4.0000   
    7.37000       4.0000   
    7.37500       4.0000   
    7.38000       4.0000   
    7.38500       4.0000   
    7.39000       4.0000   
    7.39500       4.0000   
    7.40000       4.0000   
    7.40500       4.0000   
    7.41000       4.0000   
    7.41500       4.0000   
    7.42000       4.0000   
    7.42500       4.0000   
    7.43000       4.0000   
    7.43500       4.0000   
    7.44000       4.0000   
    7.44500       4.0000   
    7.45000       4.0000   
    7.45500       4.0000   
    7.46000       4.0000   
    7.46500       4.0000   
    7.47000       4.0000   
    7.47500       4.0000   
    7.48000       4.0000   
    7.48500       4.0000   
    7.49000       4.0000   
    7.49500       4.0000   
    7.50000       4.0000   
    7.50500       4.0000   
    7.51000       4.0000   
    7.51500       4.0000   
    7.52000       4.0000   
    7.52500       4.0000   
    7.53000       4.0000   
    7.53500       4.0000   
    7.54000       4.0000   
    7.54500       4.0000   
    7.55000       4.0000   
    7.55500       4.0000   
    7.56000       4.0000   
    7.56500       4.0000   
    7.57000       4.0000   
    7.57500       4.0000   
    7.58000       4.0000   
    7.58500       4.0000   
    7.59000       4.0000   
    7.59500       4.0000   
    7.60000       4.0000   
    7.60500       4.0000   
    7.61000       4.0000   
    7.61500       4.0000   
    7.62000       4.0000   
    7.62500       4.0000   
    7.63000       4.0000   
    7.63500       4.0000   
    7.64000       4.0000   
    7.64500       4.0000   
    7.65000       4.0000   
    7.65500       4.0000   
    7.66000       4.0000   
    7.66500       4.0000   
    7.67000       4.0000   
    7.67500       4.0000   
    7.68000       4.0000   
    7.68500       4.0000   
    7.69000       4.0000   
    7.69500       4.0000   
    7.70000       4.0000   
    7.70500       4.0000   
    7.71000       4.0000   
    7.71500       4.0000   
    7.72000       4.0000   
    7.72500       4.0000   
    7.73000       4.0000   
    7.73500       4.0000   
    7.74000       4.0000   
    7.74500       4.0000   
    7.75000       4.0000   
    7.75500       4.0000   
    7.76000       4.0000   
    7.76500       4.0000   
    7.77000       4.0000   
    7.77500       4.0000   
    7.78000       4.0000   
    7.78500       4.0000   
    7.79000       4.0000   
    7.79500       4.0000   
    7.80000       4.0000   
    7.80500       4.0000   
    7.81000       4.0000   
    7.81500       4.0000   
    7.82000       4.0000   
    7.82500       4.0000   
    7.83000       4.0000   
    7.83500       4.0000   
    7.84000       4.0000   
    7.84500       4.0000   
    7.85000       4.0000   
    7.85500       4.0000   
    7.86000       4.0000   
    7.86500       4.0000   
    7.87000       4.0000   
    7.87500       4.0000   
    7.88000       4.0000   
    7.88500       4.0000   
    7.89000       4.0000   
    7.89500       4.0000   
    7.90000       4.0000   
    7.90500       4.0000   
    7.91000       4.0000   
    7.91500       4.0000   
    7.92000       4.0000   
    7.92500       4.0000   
    7.93000       4.0000   
    7.93500       4.0000   
    7.94000       4.0000   
    7.94500       4.0000   
    7.95000       4.0000   
    7.95500       4.0000   
    7.96000       4.0000   
    7.96500       4.0000   
    7.97000       4.0000   
    7.97500       4.0000   
    7.98000       4.0000   
    7.98500       4.0000   
    7.99000       4.0000   
    7.99500       4.0000   
    8.00000       4.0000   
    8.00500       4.0000   
    8.01000       4.0000   
    8.01500       4.0000   
    8.02000       4.0000   
    8.02500       4.0000   
    8.03000       4.0000   
    8.03500       4.0000   
    8.04000       4.0000   
    8.04500       4.0000   
    8.05000       4.0000   
    8.05500       4.0000   
    8.06000       4.0000   
    8.06500       4.0000   
    8.07000       4.0000   
    8.07500       4.0000   
    8.08000       4.0000   
    8.08500       4.0000   
    8.09000       4.0000   
    8.09500       4.0000   
    8.10000       4.0000   
    8.10500       4.0000   
    8.11000       4.0000   
    8.11500       4.0000   
    8.12000       4.0000   
    8.12500       4.0000   
    8.13000       4.0000   
    8.13500       4.0000   
    8.14000       4.0000   
    8.14500       4.0000   
    8.15000       4.0000   
    8.15500       4.0000   
    8.16000       4.0000   
    8.16500       4.0000   
    8.17000       4.0000   
    8.17500       4.0000   
    8.18000       4.0000   
    8.18500       4.0000   
    8.19000       4.0000   
    8.19500       4.0000   
    8.20000       4.0000   
    8.20500       4.0000   
    8.21000       4.0000   
    8.21500       4.0000   
    8.22000       4.0000   
    8.22500       4.0000   
    8.23000       4.0000   
    8.23500       4.0000   
    8.24000       4.0000   
    8.24500       4.0000   
    8.25000       4.0000   
    8.25500       4.0000   
    8.26000       4.0000   
    8.26500       4.0000   
    8.27000       4.0000   
    8.27500       4.0000   
    8.28000       4.0000   
    8.28500       4.0000   
    8.29000       4.0000   
    8.29500       4.0000   
    8.30000       4.0000   
    8.30500       4.0000   
    8.31000       4.0000   
    8.31500       4.0000   
    8.32000       4.0000   
    8.32500       4.0000   
    8.33000       4.0000   
    8.33500       4.0000   
    8.34000       4.0000   
    8.34500       4.0000   
    8.35000       4.0000   
    8.35500       4.0000   
    8.36000       4.0000   
    8.36500       4.0000   
    8.37000       4.0000   
    8.37500       4.0000   
    8.38000       4.0000   
    8.38500       4.0000   
    8.39000       4.0000   
    8.39500       4.0000   
    8.40000       4.0000   
    8.40500       4.0000   
    8.41000       4.0000   
    8.41500       4.0000   
    8.42000       4.0000   
    8.42500       4.0000   
    8.43000       4.0000   
    8.43500       4.0000   
    8.44000       4.0000   
    8.44500       4.0000   
    8.45000       4.0000   
    8.45500       4.0000   
    8.46000       4.0000   
    8.46500       4.0000   
    8.47000       4.0000   
    8.47500       4.0000   
    8.48000       4.0000   
    8.48500       4.0000   
    8.49000       4.0000   
    8.49500       4.0000   
    8.50000       4.0000   
    8.50500       4.0000   
    8.51000       4.0000   
    8.51500       4.0000   
    8.52000       4.0000   
    8.52500       4.0000   
    8.53000       4.0000   
    8.53500       4.0000   
    8.54000       4.0000   
    8.54500       4.0000   
    8.55000       4.0000   
    8.55500       4.0000   
    8.56000       4.0000   
    8.56500       4.0000   
    8.57000       4.0000   
    8.57500       4.0000   
    8.58000       4.0000   
    8.58500       4.0000   
    8.59000       4.0000   
    8.59500       4.0000   
    8.60000       4.0000   
    8.60500       4.0000   
    8.61000       4.0000   
    8.61500       4.0000   
    8.62000       4.0000   
    8.62500       4.0000   
    8.63000       4.0000   
    8.63500       4.0000   
    8.64000       4.0000   
    8.64500       4.0000   
    8.65000       4.0000   
    8.65500       4.0000   
    8.66000       4.0000   
    8.66500       4.0000   
    8.67000       4.0000   
    8.67500       4.0000   
    8.68000       4.0000   
    8.68500       4.0000   
    8.69000       4.0000   
    8.69500       4.0000   
    8.70000       4.0000   
    8.70500       4.0000   
    8.71000       4.0000   
    8.71500       4.0000   
    8.72000       4.0000   
    8.72500       4.0000   
    8.73000       4.0000   
    8.73500       4.0000   
    8.74000       4.0000   
    8.74500       4.0000   
    8.75000       4.0000   
    8.75500       4.0000   
    8.76000       4.0000   
    8.76500       4.0000   
    8.77000       4.0000   
    8.77500       4.0000   
    8.78000       4.0000   
    8.78500       4.0000   
    8.79000       4.0000   
    8.79500       4.0000   
    8.80000       4.0000   
    8.80500       4.0000   
    8.81000       4.0000   
    8.81500       4.0000   
    8.82000       4.0000   
    8.82500       4.0000   
    8.83000       4.0000   
    8.83500       4.0000   
    8.84000       4.0000   
    8.84500       4.0000   
    8.85000       4.0000   
    8.85500       4.0000   
    8.86000       4.0000   
    8.86500       4.0000   
    8.87000       4.0000   
    8.87500       4.0000   
    8.88000       4.0000   
    8.88500       4.0000   
    8.89000       4.0000   
    8.89500       4.0000   
    8.90000       4.0000   
    8.90500       3.9999   
    8.91000       3.9999   
    8.91500       3.9999   
    8.92000       3.9999   
    8.92500       3.9999   
    8.93000       3.9999   
    8.93500       3.9999   
    8.94000       3.9999   
    8.94500       3.9999   
    8.95000       3.9999   
    8.95500       3.9999   
    8.96000       3.9999   
    8.96500       3.9999   
    8.97000       3.9999   
    8.97500       3.9999   
    8.98000       3.9999   
    8.98500       3.9999   
    8.99000       3.9999   
    8.99500       3.9999   
    9.00000       3.9999   
    9.00500       3.9999   
    9.01000       3.9999   
    9.01500       3.9999   
    9.02000       3.9999   
    9.02500       3.9999   
    9.03000       3.9999   
    9.03500       3.9999   
    9.04000       3.9999   
    9.04500       3.9999   
    9.05000       3.9999   
    9.05500       3.9999   
    9.06000       3.9999   
    9.06500       3.9999   
    9.07000       3.9999   
    9.07500       3.9999   
    9.08000       3.9999   
    9.08500       3.9999   
    9.09000       3.9999   
    9.09500       3.9999   
    9.10000       3.9999   
    9.10500       3.9999   
    9.11000       3.9999   
    9.11500       3.9999   
    9.12000       3.9999   
    9.12500       3.9999   
    9.13000       3.9999   
    9.13500       3.9999   
    9.14000       3.9999   
    9.14500       3.9999   
    9.15000       3.9999   
    9.15500       3.9999   
    9.16000       3.9999   
    9.16500       3.9999   
    9.17000       3.9999   
    9.17500       3.9999   
    9.18000       3.9999   
    9.18500       3.9999   
    9.19000       3.9999   
    9.19500       3.9999   
    9.20000       3.9999   
    9.20500       3.9999   
    9.21000       3.9999   
    9.21500       3.9999   
    9.22000       3.9999   
    9.22500       3.9999   
    9.23000       3.9999   
    9.23500       3.9999   
    9.24000       3.9999   
    9.24500       3.9999   
    9.25000       3.9999   
    9.25500       3.9999   
    9.26000       3.9999   
    9.26500       3.9999   
    9.27000       3.9999   
    9.27500       3.9999   
    9.28000       3.9999   
    9.28500       3.9999   
    9.29000       3.9999   
    9.29500       3.9999   
    9.30000       3.9999   
    9.30500       3.9999   
    9.31000       3.9999   
    9.31500       3.9999   
    9.32000       3.9999   
    9.32500       3.9999   
    9.33000       3.9999   
    9.33500       3.9999   
    9.34000       3.9999   
    9.34500       3.9999   
    9.35000       3.9999   
    9.35500       3.9999   
    9.36000       3.9999   
    9.36500       3.9999   
    9.37000       3.9999   
    9.37500       3.9999   
    9.38000       3.9999   
    9.38500       3.9999   
    9.39000       3.9999   
    9.39500       3.9999   
    9.40000       3.9999   
    9.40500       3.9999   
    9.41000       3.9999   
    9.41500       3.9999   
    9.42000       3.9999   
    9.42500       3.9999   
    9.43000       3.9999   
    9.43500       3.9999   
    9.44000       3.9999   
    9.44500       3.9999   
    9.45000       3.9999   
    9.45500       3.9999   
    9.46000       3.9999   
    9.46500       3.9999   
    9.47000       3.9999   
    9.47500       3.9999   
    9.48000       3.9999   
    9.48500       3.9999   
    9.49000       3.9999   
    9.49500       3.9999   
    9.50000       3.9999   
    9.50500       3.9999   
    9.51000       3.9999   
    9.51500       3.9999   
    9.52000       3.9999   
    9.52500       3.9999   
    9.53000       3.9999   
    9.53500       3.9999   
    9.54000       3.9999   
    9.54500       3.9999   
    9.55000       3.9999   
    9.55500       3.9999   
    9.56000       3.9999   
    9.56500       3.9999   
    9.57000       3.9999   
    9.57500       3.9999   
    9.58000       3.9999   
    9.58500       3.9999   
    9.59000       3.9999   
    9.59500       3.9999   
    9.60000       3.9999   
    9.60500       3.9999   
    9.61000       3.9999   
    9.61500       3.9999   
    9.62000       3.9999   
    9.62500       3.9999   
    9.63000       3.9999   
    9.63500       3.9999   
    9.64000       3.9999   
    9.64500       3.9999   
    9.65000       3.9999   
    9.65500       3.9999   
    9.66000       3.9999   
    9.66500       3.9999   
    9.67000       3.9999   
    9.67500       3.9999   
    9.68000       3.9999   
    9.68500       3.9999   
    9.69000       3.9999   
    9.69500       3.9999   
    9.70000       3.9999   
    9.70500       3.9999   
    9.71000       3.9999   
    9.71500       3.9999   
    9.72000       3.9999   
    9.72500       3.9999   
    9.73000       3.9999   
    9.73500       3.9999   
    9.74000       3.9999   
    9.74500       3.9999   
    9.75000       3.9999   
    9.75500       3.9999   
    9.76000       3.9999   
    9.76500       3.9999   
    9.77000       3.9999   
    9.77500       3.9999   
    9.78000       3.9999   
    9.78500       3.9999   
    9.79000       3.9999   
    9.79500       3.9999   
    9.80000       3.9999   
    9.80500       3.9999   
    9.81000       3.9999   
    9.81500       3.9999   
    9.82000       3.9999   
    9.82500       3.9999   
    9.83000       3.9999   
    9.83500       3.9999   
    9.84000       3.9999   
    9.84500       3.9999   
    9.85000       3.9999   
    9.85500       3.9999   
    9.86000       3.9999   
    9.86500       3.9999   
    9.87000       3.9999   
    9.87500       3.9999   
    9.88000       3.9999   
    9.88500       3.9999   
    9.89000       3.9999   
    9.89500       3.9999   
    9.90000       3.9999   
    9.90500       3.9999   
    9.91000       3.9999   
    9.91500       3.9999   
    9.92000       3.9999   
    9.92500       3.9999   
    9.93000       3.9999   
    9.93500       3.9999   
    9.94000       3.9999   
    9.94500       3.9999   
    9.95000       3.9999   
    9.95500       3.9999   
    9.96000       3.9999   
    9.96500       3.9999   
    9.97000       3.9999   
    9.97500       3.9999   
    9.98000       3.9999   
    9.98500       3.9999   
    9.99000       3.9999   
    9.99500       3.9999   
   10.00000       3.9999   
   10.00500       3.9999   
   10.01000       3.9999   
   10.01500       3.9999   
   10.02000       3.9999   
   10.02500       3.9999   
   10.03000       3.9999   
   10.03500       3.9999   
   10.04000       3.9999   
   10.04500       3.9999   
   10.05000       3.9999   
   10.05500       3.9999   
   10.06000       3.9999   
   10.06500       3.9999   
   10.07000       3.9999   
   10.07500       3.9999   
   10.08000       3.9999   
   10.08500       3.9999   
   10.09000       3.9999   
   10.09500       3.9999   
   10.10000       3.9999   
   10.10500       3.9999   
   10.11000       3.9999   
   10.11500       3.9999   
   10.12000       3.9999   
   10.12500       3.9999   
   10.13000       3.9999   
   10.13500       3.9999   
   10.14000       3.9999   
   10.14500       3.9999   
   10.15000       3.9999   
   10.15500       3.9999   
   10.16000       3.9999   
   10.16500       3.9999   
   10.17000       3.9999   
   10.17500       3.9999   
   10.18000       3.9999   
   10.18500       3.9999   
   10.19000       3.9999   
   10.19500       3.9999   
   10.20000       3.9999   
   10.20500       3.9999   
   10.21000       3.9999   
   10.21500       3.9999   
   10.22000       3.9999   
   10.22500       3.9999   
   10.23000       3.9999   
   10.23500       3.9999   
   10.24000       3.9999   
   10.24500       3.9999   
   10.25000       3.9999   
   10.25500       3.9999   
   10.26000       3.9999   
   10.26500       3.9999   
   10.27000       3.9999   
   10.27500       3.9999   
   10.28000       3.9999   
   10.28500       3.9999   
   10.29000       3.9999   
   10.29500       3.9999   
   10.30000       3.9999   
   10.30500       3.9999   
   10.31000       3.9999   
   10.31500       3.9999   
   10.32000       3.9999   
   10.32500       3.9999   
   10.33000       3.9999   
   10.33500       3.9999   
   10.34000       3.9999   
   10.34500       3.9999   
   10.35000       3.9999   
   10.35500       3.9999   
   10.36000       3.9999   
   10.36500       3.9999   
   10.37000       3.9999   
   10.37500       3.9999   
   10.38000       3.9999   
   10.38500       3.9999   
   10.39000       3.9999   
   10.39500       3.9999   
   10.40000       3.9999   
   10.40500       3.9999   
   10.41000       3.9999   
   10.41500       3.9999   
   10.42000       3.9999   
   10.42500       3.9999   
   10.43000       3.9999   
   10.43500       3.9999   
   10.44000       3.9999   
   10.44500       3.9999   
   10.45000       3.9999   
   10.45500       3.9999   
   10.46000       3.9999   
   10.46500       3.9999   
   10.47000       3.9999   
   10.47500       3.9999   
   10.48000       3.9999   
   10.48500       3.9999   
   10.49000       3.9999   
   10.49500       3.9999   
   10.50000       3.9999   
   10.50500       3.9999   
   10.51000       3.9999   
   10.51500       3.9999   
   10.52000       3.9999   
   10.52500       3.9999   
   10.53000       3.9999   
   10.53500       3.9999   
   10.54000       3.9999   
   10.54500       3.9999   
   10.55000       3.9999   
   10.55500       3.9999   
   10.56000       3.9999   
   10.56500       3.9999   
   10.57000       3.9999   
   10.57500       3.9999   
   10.58000       3.9999   
   10.58500       3.9999   
   10.59000       3.9999   
   10.59500       3.9999   
   10.60000       3.9999   
   10.60500       3.9999   
   10.61000       3.9999   
   10.61500       3.9999   
   10.62000       3.9999   
   10.62500       3.9999   
   10.63000       3.9999   
   10.63500       3.9999   
   10.64000       3.9999   
   10.64500       3.9999   
   10.65000       3.9999   
   10.65500       3.9999   
   10.66000       3.9999   
   10.66500       3.9999   
   10.67000       3.9999   
   10.67500       3.9999   
   10.68000       3.9999   
   10.68500       3.9999   
   10.69000       3.9999   
   10.69500       3.9999   
   10.70000       3.9999   
   10.70500       3.9999   
   10.71000       3.9999   
   10.71500       3.9999   
   10.72000       3.9999   
   10.72500       3.9999   
   10.73000       3.9999   
   10.73500       3.9999   
   10.74000       3.9999   
   10.74500       3.9999   
   10.75000       3.9999   
   10.75500       3.9999   
   10.76000       3.9999   
   10.76500       3.9999   
   10.77000       3.9999   
   10.77500       3.9999   
   10.78000       3.9999   
   10.78500       3.9999   
   10.79000       3.9999   
   10.79500       3.9999   
   10.80000       3.9999   
   10.80500       3.9999   
   10.81000       3.9999   
   10.81500       3.9999   
   10.82000       3.9999   
   10.82500       3.9999   
   10.83000       3.9999   
   10.83500       3.9999   
   10.84000       3.9999   
   10.84500       3.9999   
   10.85000       3.9999   
   10.85500       3.9999   
   10.86000       3.9999   
   10.86500       3.9999   
   10.87000       3.9999   
   10.87500       3.9999   
   10.88000       3.9999   
   10.88500       3.9999   
   10.89000       3.9999   
   10.89500       3.9999   
   10.90000       3.9999   
   10.90500       3.9999   
   10.91000       3.9999   
   10.91500       3.9999   
   10.92000       3.9999   
   10.92500       3.9999   
   10.93000       3.9999   
   10.93500       3.9999   
   10.94000       3.9999   
   10.94500       3.9999   
   10.95000       3.9999   
   10.95500       3.9999   
   10.96000       3.9999   
   10.96500       3.9999   
   10.97000       3.9999   
   10.97500       3.9999   
   10.98000       3.9999   
   10.98500       3.9999   
   10.99000       3.9999   
   10.99500       3.9999   
   11.00000       3.9999   
   11.00500       3.9999   
   11.01000       3.9999   
   11.01500       3.9999   
   11.02000       3.9999   
   11.02500       3.9999   
   11.03000       3.9999   
   11.03500       3.9999   
   11.04000       3.9999   
   11.04500       3.9999   
   11.05000       3.9999   
   11.05500       3.9999   
   11.06000       3.9999   
   11.06500       3.9999   
   11.07000       3.9999   
   11.07500       3.9999   
   11.08000       3.9999   
   11.08500       3.9999   
   11.09000       3.9999   
   11.09500       3.9999   
   11.10000       3.9999   
   11.10500       3.9999   
   11.11000       3.9999   
   11.11500       3.9999   
   11.12000       3.9999   
   11.12500       3.9999   
   11.13000       3.9999   
   11.13500       3.9999   
   11.14000       3.9999   
   11.14500       3.9999   
   11.15000       3.9999   
   11.15500       3.9999   
   11.16000       3.9999   
   11.16500       3.9999   
   11.17000       3.9999   
   11.17500       3.9999   
   11.18000       3.9999   
   11.18500       3.9999   
   11.19000       3.9999   
   11.19500       3.9999   
   11.20000       3.9999   
   11.20500       3.9999   
   11.21000       3.9999   
   11.21500       3.9999   
   11.22000       3.9999   
   11.22500       3.9999   
   11.23000       3.9999   
   11.23500       3.9999   
   11.24000       3.9999   
   11.24500       3.9999   
   11.25000       3.9999   
   11.25500       3.9999   
   11.26000       3.9999   
   11.26500       3.9999   
   11.27000       3.9999   
   11.27500       3.9999   
   11.28000       3.9999   
   11.28500       3.9999   
   11.29000       3.9999   
   11.29500       3.9999   
   11.30000       3.9999   
   11.30500       3.9998   
   11.31000       3.9998   
   11.31500       3.9998   
   11.32000       3.9998   
   11.32500       3.9998   
   11.33000       3.9998   
   11.33500       3.9998   
   11.34000       3.9998   
   11.34500       3.9998   
   11.35000       3.9998   
   11.35500       3.9998   
   11.36000       3.9998   
   11.36500       3.9998   
   11.37000       3.9998   
   11.37500       3.9998   
   11.38000       3.9998   
   11.38500       3.9998   
   11.39000       3.9998   
   11.39500       3.9998   
   11.40000       3.9998   
   11.40500       3.9998   
   11.41000       3.9998   
   11.41500       3.9998   
   11.42000       3.9998   
   11.42500       3.9998   
   11.43000       3.9998   
   11.43500       3.9998   
   11.44000       3.9998   
   11.44500       3.9998   
   11.45000       3.9998   
   11.45500       3.9998   
   11.46000       3.9998   
   11.46500       3.9998   
   11.47000       3.9998   
   11.47500       3.9998   
   11.48000       3.9998   
   11.48500       3.9998   
   11.49000       3.9998   
   11.49500       3.9998   
   11.50000       3.9998   
   11.50500       3.9998   
   11.51000       3.9998   
   11.51500       3.9998   
   11.52000       3.9998   
   11.52500       3.9998   
   11.53000       3.9998   
   11.53500       3.9998   
   11.54000       3.9998   
   11.54500       3.9998   
   11.55000       3.9998   
   11.55500       3.9998   
   11.56000       3.9998   
   11.56500       3.9998   
   11.57000       3.9998   
   11.57500       3.9998   
   11.58000       3.9998   
   11.58500       3.9998   
   11.59000       3.9998   
   11.59500       3.9998   
   11.60000       3.9998   
   11.60500       3.9998   
   11.61000       3.9998   
   11.61500       3.9998   
   11.62000       3.9998   
   11.62500       3.9998   
   11.63000       3.9998   
   11.63500       3.9998   
   11.64000       3.9998   
   11.64500       3.9998   
   11.65000       3.9998   
   11.65500       3.9998   
   11.66000       3.9998   
   11.66500       3.9998   
   11.67000       3.9998   
   11.67500       3.9998   
   11.68000       3.9998   
   11.68500       3.9998   
   11.69000       3.9998   
   11.69500       3.9998   
   11.70000       3.9998   
   11.70500       3.9998   
   11.71000       3.9998   
   11.71500       3.9998   
   11.72000       3.9998   
   11.72500       3.9998   
   11.73000       3.9998   
   11.73500       3.9998   
   11.74000       3.9998   
   11.74500       3.9998   
   11.75000       3.9998   
   11.75500       3.9998   
   11.76000       3.9998   
   11.76500       3.9998   
   11.77000       3.9998   
   11.77500       3.9998   
   11.78000       3.9998   
   11.78500       3.9998   
   11.79000       3.9998   
   11.79500       3.9998   
   11.80000       3.9998   
   11.80500       3.9998   
   11.81000       3.9998   
   11.81500       3.9998   
   11.82000       3.9998   
   11.82500       3.9998   
   11.83000       3.9998   
   11.83500       3.9998   
   11.84000       3.9998   
   11.84500       3.9998   
   11.85000       3.9998   
   11.85500       3.9998   
   11.86000       3.9998   
   11.86500       3.9998   
   11.87000       3.9998   
   11.87500       3.9998   
   11.88000       3.9998   
   11.88500       3.9998   
   11.89000       3.9998   
   11.89500       3.9998   
   11.90000       3.9998   
   11.90500       3.9998   
   11.91000       3.9998   
   11.91500       3.9998   
   11.92000       3.9998   
   11.92500       3.9998   
   11.93000       3.9998   
   11.93500       3.9998   
   11.94000       3.9998   
   11.94500       3.9998   
   11.95000       3.9998   
   11.95500       3.9998   
   11.96000       3.9998   
   11.96500       3.9998   
   11.97000       3.9998   
   11.97500       3.9998   
   11.98000       3.9998   
   11.98500       3.9998   
   11.99000       3.9998   
   11.99500       3.9998   
   12.00000       3.9998   
   12.00500       3.9998   
   12.01000       3.9998   
   12.01500       3.9998   
   12.02000       3.9998   
   12.02500       3.9998   
[...]
   56.75000    -170.0864   
   56.75500    -170.1163   
   56.76000    -170.1463   
   56.76500    -170.1763   
   56.77000    -170.2063   
   56.77500    -170.2362   
   56.78000    -170.2662   
   56.78500    -170.2962   
   56.79000    -170.3261   
   56.79500    -170.3561   
   56.80000    -170.3861   
   56.80500    -170.4161   
   56.81000    -170.4460   
   56.81500    -170.4760   
   56.82000    -170.5060   
   56.82500    -170.5359   
   56.83000    -170.5659   
   56.83500    -170.5959   
   56.84000    -170.6259   
   56.84500    -170.6558   
   56.85000    -170.6858   
   56.85500    -170.7158   
   56.86000    -170.7458   
   56.86500    -170.7757   
   56.87000    -170.8057   
   56.87500    -170.8357   
   56.88000    -170.8657   
   56.88500    -170.8956   
   56.89000    -170.9256   
   56.89500    -170.9556   
   56.90000    -170.9856   
   56.90500    -171.0155   
   56.91000    -171.0455   
   56.91500    -171.0755   
   56.92000    -171.1055   
   56.92500    -171.1355   
   56.93000    -171.1654   
   56.93500    -171.1954   
   56.94000    -171.2254   
   56.94500    -171.2554   
   56.95000    -171.2854   
   56.95500    -171.3153   
   56.96000    -171.3453   
   56.96500    -171.3753   
   56.97000    -171.4053   
   56.97500    -171.4353   
   56.98000    -171.4652   
   56.98500    -171.4952   
   56.99000    -171.5252   
   56.99500    -171.5552   
   57.00000    -171.5852   
   57.00500    -171.6152   
   57.01000    -171.6451   
   57.01500    -171.6751   
   57.02000    -171.7051   
   57.02500    -171.7351   
   57.03000    -171.7651   
   57.03500    -171.7951   
   57.04000    -171.8250   
   57.04500    -171.8550   
   57.05000    -171.8850   
   57.05500    -171.9150   
   57.06000    -171.9450   
   57.06500    -171.9750   
   57.07000    -172.0050   
   57.07500    -172.0349   
   57.08000    -172.0649   
   57.08500    -172.0949   
   57.09000    -172.1249   
   57.09500    -172.1549   
   57.10000    -172.1849   
   57.10500    -172.2149   
   57.11000    -172.2449   
   57.11500    -172.2748   
   57.12000    -172.3048   
   57.12500    -172.3348   
   57.13000    -172.3648   
   57.13500    -172.3948   
   57.14000    -172.4248   
   57.14500    -172.4548   
   57.15000    -172.4848   
   57.15500    -172.5148   
   57.16000    -172.5448   
   57.16500    -172.5747   
   57.17000    -172.6047   
   57.17500    -172.6347   
   57.18000    -172.6647   
   57.18500    -172.6947   
   57.19000    -172.7247   
   57.19500    -172.7547   
   57.20000    -172.7847   
   57.20500    -172.8147   
   57.21000    -172.8447   
   57.21500    -172.8747   
   57.22000    -172.9047   
   57.22500    -172.9347   
   57.23000    -172.9647   
   57.23500    -172.9946   
   57.24000    -173.0246   
   57.24500    -173.0546   
   57.25000    -173.0846   
   57.25500    -173.1146   
   57.26000    -173.1446   
   57.26500    -173.1746   
   57.27000    -173.2046   
   57.27500    -173.2346   
   57.28000    -173.2646   
   57.28500    -173.2946   
   57.29000    -173.3246   
   57.29500    -173.3546   
   57.30000    -173.3846   
   57.30500    -173.4146   
   57.31000    -173.4446   
   57.31500    -173.4746   
   57.32000    -173.5046   
   57.32500    -173.5346   
   57.33000    -173.5646   
   57.33500    -173.5946   
   57.34000    -173.6246   
   57.34500    -173.6546   
   57.35000    -173.6846   
   57.35500    -173.7146   
   57.36000    -173.7446   
   57.36500    -173.7746   
   57.37000    -173.8046   
   57.37500    -173.8346   
   57.38000    -173.8646   
   57.38500    -173.8946   
   57.39000    -173.9246   
   57.39500    -173.9546   
   57.40000    -173.9846   
   57.40500    -174.0146   
   57.41000    -174.0446   
   57.41500    -174.0746   
   57.42000    -174.1046   
   57.42500    -174.1347   
   57.43000    -174.1647   
   57.43500    -174.1947   
   57.44000    -174.2247   
   57.44500    -174.2547   
   57.45000    -174.2847   
   57.45500    -174.3147   
   57.46000    -174.3447   
   57.46500    -174.3747   
   57.47000    -174.4047   
   57.47500    -174.4347   
   57.48000    -174.4647   
   57.48500    -174.4947   
   57.49000    -174.5247   
   57.49500    -174.5548   
   57.50000    -174.5848   
   57.50500    -174.6148   
   57.51000    -174.6448   
   57.51500    -174.6748   
   57.52000    -174.7048   
   57.52500    -174.7348   
   57.53000    -174.7648   
   57.53500    -174.7948   
   57.54000    -174.8248   
   57.54500    -174.8549   
   57.55000    -174.8849   
   57.55500    -174.9149   
   57.56000    -174.9449   
   57.56500    -174.9749   
   57.57000    -175.0049   
   57.57500    -175.0349   
   57.58000    -175.0649   
   57.58500    -175.0950   
   57.59000    -175.1250   
   57.59500    -175.1550   
   57.60000    -175.1850   
   57.60500    -175.2150   
   57.61000    -175.2450   
   57.61500    -175.2750   
   57.62000    -175.3051   
   57.62500    -175.3351   
   57.63000    -175.3651   
   57.63500    -175.3951   
   57.64000    -175.4251   
   57.64500    -175.4551   
   57.65000    -175.4851   
   57.65500    -175.5152   
   57.66000    -175.5452   
   57.66500    -175.5752   
   57.67000    -175.6052   
   57.67500    -175.6352   
   57.68000    -175.6653   
   57.68500    -175.6953   
   57.69000    -175.7253   
   57.69500    -175.7553   
   57.70000    -175.7853   
   57.70500    -175.8153   
   57.71000    -175.8454   
   57.71500    -175.8754   
   57.72000    -175.9054   
   57.72500    -175.9354   
   57.73000    -175.9654   
   57.73500    -175.9955   
   57.74000    -176.0255   
   57.74500    -176.0555   
   57.75000    -176.0855   
   57.75500    -176.1156   
   57.76000    -176.1456   
   57.76500    -176.1756   
   57.77000    -176.2056   
   57.77500    -176.2356   
   57.78000    -176.2657   
   57.78500    -176.2957   
   57.79000    -176.3257   
   57.79500    -176.3557   
   57.80000    -176.3858   
   57.80500    -176.4158   
   57.81000    -176.4458   
   57.81500    -176.4758   
   57.82000    -176.5059   
   57.82500    -176.5359   
   57.83000    -176.5659   
   57.83500    -176.5959   
   57.84000    -176.6260   
   57.84500    -176.6560   
   57.85000    -176.6860   
   57.85500    -176.7161   
   57.86000    -176.7461   
   57.86500    -176.7761   
   57.87000    -176.8061   
   57.87500    -176.8362   
   57.88000    -176.8662   
   57.88500    -176.8962   
   57.89000    -176.9263   
   57.89500    -176.9563   
   57.90000    -176.9863   
   57.90500    -177.0163   
   57.91000    -177.0464   
   57.91500    -177.0764   
   57.92000    -177.1064   
   57.92500    -177.1365   
   57.93000    -177.1665   
   57.93500    -177.1965   
   57.94000    -177.2266   
   57.94500    -177.2566   
   57.95000    -177.2866   
   57.95500    -177.3167   
   57.96000    -177.3467   
   57.96500    -177.3767   
   57.97000    -177.4067   
   57.97500    -177.4368   
   57.98000    -177.4668   
   57.98500    -177.4968   
   57.99000    -177.5269   
   57.99500    -177.5569   
   58.00000    -177.5870   
   58.00500    -177.6170   
   58.01000    -177.6470   
   58.01500    -177.6771   
   58.02000    -177.7071   
   58.02500    -177.7371   
   58.03000    -177.7672   
   58.03500    -177.7972   
   58.04000    -177.8272   
   58.04500    -177.8573   
   58.05000    -177.8873   
   58.05500    -177.9173   
   58.06000    -177.9474   
   58.06500    -177.9774   
   58.07000    -178.0075   
   58.07500    -178.0375   
   58.08000    -178.0675   
   58.08500    -178.0976   
   58.09000    -178.1276   
   58.09500    -178.1577   
   58.10000    -178.1877   
   58.10500    -178.2177   
   58.11000    -178.2478   
   58.11500    -178.2778   
   58.12000    -178.3079   
   58.12500    -178.3379   
   58.13000    -178.3679   
   58.13500    -178.3980   
   58.14000    -178.4280   
   58.14500    -178.4581   
   58.15000    -178.4881   
   58.15500    -178.5181   
   58.16000    -178.5482   
   58.16500    -178.5782   
   58.17000    -178.6083   
   58.17500    -178.6383   
   58.18000    -178.6684   
   58.18500    -178.6984   
   58.19000    -178.7285   
   58.19500    -178.7585   
   58.20000    -178.7885   
   58.20500    -178.8186   
   58.21000    -178.8486   
   58.21500    -178.8787   
   58.22000    -178.9087   
   58.22500    -178.9388   
   58.23000    -178.9688   
   58.23500    -178.9989   
   58.24000    -179.0289   
   58.24500    -179.0590   
   58.25000    -179.0890   
   58.25500    -179.1190   
   58.26000    -179.1491   
   58.26500    -179.1791   
   58.27000    -179.2092   
   58.27500    -179.2392   
   58.28000    -179.2693   
   58.28500    -179.2993   
   58.29000    -179.3294   
   58.29500    -179.3594   
   58.30000    -179.3895   
   58.30500    -179.4195   
   58.31000    -179.4496   
   58.31500    -179.4796   
   58.32000    -179.5097   
   58.32500    -179.5397   
   58.33000    -179.5698   
   58.33500    -179.5998   
   58.34000    -179.6299   
   58.34500    -179.6599   
   58.35000    -179.6900   
   58.35500    -179.7200   
   58.36000    -179.7501   
   58.36500    -179.7802   
   58.37000    -179.8102   
   58.37500    -179.8403   
   58.38000    -179.8703   
   58.38500    -179.9004   
   58.39000    -179.9304   
   58.39500    -179.9605   
   58.40000    -179.9905   
   58.40500    -180.0206   
   58.41000    -180.0506   
   58.41500    -180.0807   
   58.42000    -180.1107   
   58.42500    -180.1408   
   58.43000    -180.1709   
   58.43500    -180.2009   
   58.44000    -180.2310   
   58.44500    -180.2610   
   58.45000    -180.2911   
   58.45500    -180.3211   
   58.46000    -180.3512   
   58.46500    -180.3813   
   58.47000    -180.4113   
   58.47500    -180.4414   
   58.48000    -180.4714   
   58.48500    -180.5015   
   58.49000    -180.5316   
   58.49500    -180.5616   
   58.50000    -180.5917   
   58.50500    -180.6217   
   58.51000    -180.6518   
   58.51500    -180.6818   
   58.52000    -180.7119   
   58.52500    -180.7420   
   58.53000    -180.7720   
   58.53500    -180.8021   
   58.54000    -180.8322   
   58.54500    -180.8622   
   58.55000    -180.8923   
   58.55500    -180.9223   
   58.56000    -180.9524   
   58.56500    -180.9825   
   58.57000    -181.0125   
   58.57500    -181.0426   
   58.58000    -181.0727   
   58.58500    -181.1027   
   58.59000    -181.1328   
   58.59500    -181.1628   
   58.60000    -181.1929   
   58.60500    -181.2230   
   58.61000    -181.2530   
   58.61500    -181.2831   
   58.62000    -181.3132   
   58.62500    -181.3432   
   58.63000    -181.3733   
   58.63500    -181.4034   
   58.64000    -181.4334   
   58.64500    -181.4635   
   58.65000    -181.4936   
   58.65500    -181.5236   
   58.66000    -181.5537   
   58.66500    -181.5838   
   58.67000    -181.6138   
   58.67500    -181.6439   
   58.68000    -181.6740   
   58.68500    -181.7040   
   58.69000    -181.7341   
   58.69500    -181.7642   
   58.70000    -181.7942   
   58.70500    -181.8243   
   58.71000    -181.8544   
   58.71500    -181.8845   
   58.72000    -181.9145   
   58.72500    -181.9446   
   58.73000    -181.9747   
   58.73500    -182.0047   
   58.74000    -182.0348   
   58.74500    -182.0649   
   58.75000    -182.0950   
   58.75500    -182.1250   
   58.76000    -182.1551   
   58.76500    -182.1852   
   58.77000    -182.2152   
   58.77500    -182.2453   
   58.78000    -182.2754   
   58.78500    -182.3055   
   58.79000    -182.3355   
   58.79500    -182.3656   
   58.80000    -182.3957   
   58.80500    -182.4258   
   58.81000    -182.4558   
   58.81500    -182.4859   
   58.82000    -182.5160   
   58.82500    -182.5461   
   58.83000    -182.5761   
   58.83500    -182.6062   
   58.84000    -182.6363   
   58.84500    -182.6664   
   58.85000    -182.6964   
   58.85500    -182.7265   
   58.86000    -182.7566   
   58.86500    -182.7867   
   58.87000    -182.8167   
   58.87500    -182.8468   
   58.88000    -182.8769   
   58.88500    -182.9070   
   58.89000    -182.9371   
   58.89500    -182.9671   
   58.90000    -182.9972   
   58.90500    -183.0273   
   58.91000    -183.0574   
   58.91500    -183.0874   
   58.92000    -183.1175   
   58.92500    -183.1476   
   58.93000    -183.1777   
   58.93500    -183.2078   
   58.94000    -183.2379   
   58.94500    -183.2679   
   58.95000    -183.2980   
   58.95500    -183.3281   
   58.96000    -183.3582   
   58.96500    -183.3883   
   58.97000    -183.4183   
   58.97500    -183.4484   
   58.98000    -183.4785   
   58.98500    -183.5086   
   58.99000    -183.5387   
   58.99500    -183.5688   
   59.00000    -183.5988   
   59.00500    -183.6289   
   59.01000    -183.6590   
   59.01500    -183.6891   
   59.02000    -183.7192   
   59.02500    -183.7493   
   59.03000    -183.7793   
   59.03500    -183.8094   
   59.04000    -183.8395   
   59.04500    -183.8696   
   59.05000    -183.8997   
   59.05500    -183.9298   
   59.06000    -183.9599   
   59.06500    -183.9899   
   59.07000    -184.0200   
   59.07500    -184.0501   
   59.08000    -184.0802   
   59.08500    -184.1103   
   59.09000    -184.1404   
   59.09500    -184.1705   
   59.10000    -184.2006   
   59.10500    -184.2306   
   59.11000    -184.2607   
   59.11500    -184.2908   
   59.12000    -184.3209   
   59.12500    -184.3510   
   59.13000    -184.3811   
   59.13500    -184.4112   
   59.14000    -184.4413   
   59.14500    -184.4714   
   59.15000    -184.5015   
   59.15500    -184.5315   
   59.16000    -184.5616   
   59.16500    -184.5917   
   59.17000    -184.6218   
   59.17500    -184.6519   
   59.18000    -184.6820   
   59.18500    -184.7121   
   59.19000    -184.7422   
   59.19500    -184.7723   
   59.20000    -184.8024   
   59.20500    -184.8325   
   59.21000    -184.8626   
   59.21500    -184.8927   
   59.22000    -184.9227   
   59.22500    -184.9528   
   59.23000    -184.9829   
   59.23500    -185.0130   
   59.24000    -185.0431   
   59.24500    -185.0732   
   59.25000    -185.1033   
   59.25500    -185.1334   
   59.26000    -185.1635   
   59.26500    -185.1936   
   59.27000    -185.2237   
   59.27500    -185.2538   
   59.28000    -185.2839   
   59.28500    -185.3140   
   59.29000    -185.3441   
   59.29500    -185.3742   
   59.30000    -185.4043   
   59.30500    -185.4344   
   59.31000    -185.4645   
   59.31500    -185.4946   
   59.32000    -185.5247   
   59.32500    -185.5548   
   59.33000    -185.5849   
   59.33500    -185.6150   
   59.34000    -185.6451   
   59.34500    -185.6752   
   59.35000    -185.7053   
   59.35500    -185.7354   
   59.36000    -185.7655   
   59.36500    -185.7956   
   59.37000    -185.8257   
   59.37500    -185.8558   
   59.38000    -185.8859   
   59.38500    -185.9160   
   59.39000    -185.9461   
   59.39500    -185.9762   
   59.40000    -186.0063   
   59.40500    -186.0364   
   59.41000    -186.0665   
   59.41500    -186.0966   
   59.42000    -186.1267   
   59.42500    -186.1568   
   59.43000    -186.1869   
   59.43500    -186.2170   
   59.44000    -186.2471   
   59.44500    -186.2772   
   59.45000    -186.3073   
   59.45500    -186.3374   
   59.46000    -186.3675   
   59.46500    -186.3976   
   59.47000    -186.4277   
   59.47500    -186.4578   
   59.48000    -186.4880   
   59.48500    -186.5181   
   59.49000    -186.5482   
   59.49500    -186.5783   
   59.50000    -186.6084   
   59.50500    -186.6385   
   59.51000    -186.6686   
   59.51500    -186.6987   
   59.52000    -186.7288   
   59.52500    -186.7589   
   59.53000    -186.7890   
   59.53500    -186.8191   
   59.54000    -186.8492   
   59.54500    -186.8794   
   59.55000    -186.9095   
   59.55500    -186.9396   
   59.56000    -186.9697   
   59.56500    -186.9998   
   59.57000    -187.0299   
   59.57500    -187.0600   
   59.58000    -187.0901   
   59.58500    -187.1202   
   59.59000    -187.1503   
   59.59500    -187.1805   
   59.60000    -187.2106   
   59.60500    -187.2407   
   59.61000    -187.2708   
   59.61500    -187.3009   
   59.62000    -187.3310   
   59.62500    -187.3611   
   59.63000    -187.3912   
   59.63500    -187.4214   
   59.64000    -187.4515   
   59.64500    -187.4816   
   59.65000    -187.5117   
   59.65500    -187.5418   
   59.66000    -187.5719   
   59.66500    -187.6020   
   59.67000    -187.6322   
   59.67500    -187.6623   
   59.68000    -187.6924   
   59.68500    -187.7225   
   59.69000    -187.7526   
   59.69500    -187.7827   
   59.70000    -187.8128   
   59.70500    -187.8430   
   59.71000    -187.8731   
   59.71500    -187.9032   
   59.72000    -187.9333   
   59.72500    -187.9634   
   59.73000    -187.9936   
   59.73500    -188.0237   
   59.74000    -188.0538   
   59.74500    -188.0839   
   59.75000    -188.1140   
   59.75500    -188.1441   
   59.76000    -188.1743   
   59.76500    -188.2044   
   59.77000    -188.2345   
   59.77500    -188.2646   
   59.78000    -188.2947   
   59.78500    -188.3249   
   59.79000    -188.3550   
   59.79500    -188.3851   
   59.80000    -188.4152   
   59.80500    -188.4453   
   59.81000    -188.4755   
   59.81500    -188.5056   
   59.82000    -188.5357   
   59.82500    -188.5658   
   59.83000    -188.5959   
   59.83500    -188.6261   
   59.84000    -188.6562   
   59.84500    -188.6863   
   59.85000    -188.7164   
   59.85500    -188.7466   
   59.86000    -188.7767   
   59.86500    -188.8068   
   59.87000    -188.8369   
   59.87500    -188.8671   
   59.88000    -188.8972   
   59.88500    -188.9273   
   59.89000    -188.9574   
   59.89500    -188.9876   
   59.90000    -189.0177   
   59.90500    -189.0478   
   59.91000    -189.0779   
   59.91500    -189.1081   
   59.92000    -189.1382   
   59.92500    -189.1683   
   59.93000    -189.1984   
   59.93500    -189.2286   
   59.94000    -189.2587   
   59.94500    -189.2888   
   59.95000    -189.3189   
   59.95500    -189.3491   
   59.96000    -189.3792   
   59.96500    -189.4093   
   59.97000    -189.4395   
   59.97500    -189.4696   
   59.98000    -189.4997   
   59.98500    -189.5298   
   59.99000    -189.5600   
   59.99500    -189.5901   
   60.00000    -189.6202   
y

          ***** job concluded
1****** HSPICE -- C-2009.03-SP1 32-BIT (May 25 2009) winnt ******               
 ******  
 ** super cell 1 max current

  ******  job statistics summary tnom=  25.000 temp=  25.000 *****

  ******  HSPICE Threads Information  ******
  Command Line Threads Count                  :     1
  Available CPU Count                         :     8
  Actual Model Evaluation(Load) Threads Count :     1
  Actual Solver Threads Count                 :     1


  ******  Circuit Statistics  ******
  # nodes       =       7 # elements   =      16
  # resistors   =       6 # capacitors =       0 # inductors   =       0
  # mutual_inds =       0 # vccs       =       0 # vcvs        =       0
  # cccs        =       0 # ccvs       =       0 # volt_srcs   =       1
  # curr_srcs   =       3 # diodes     =       6 # bjts        =       0
  # jfets       =       0 # mosfets    =       0 # U elements  =       0
  # T elements  =       0 # W elements =       0 # B elements  =       0
  # S elements  =       0 # P elements =       0 # va device   =       0


  ******  Runtime Statistics (seconds)  ******

  analysis           time    # points   tot. iter  conv.iter
  op point           0.00           1           0
  dc sweep           0.38       12001       24018
  readin             0.04
  errchk             0.01
  setup              0.02
  output             0.04


           total memory used          353  kbytes
           total cpu time            0.51 seconds
           total elapsed time        0.53 seconds
           job started at     11:29:06 06/17/2015
           job ended   at     11:29:07 06/17/2015


 Init: hspice initialization file: C:\synopsys\Hspice_C-2009.03-SP1\hspice.ini
  lic: Release hspice token(s) 
