 ****** HSPICE -- C-2009.03-SP1 32-BIT (May 25 2009) winnt ******               
  Copyright (C) 2009 Synopsys, Inc. All Rights Reserved.                        
  Unpublished-rights reserved under US copyright laws.
  This program is protected by law and is subject to the 
  terms and conditions of the license agreement from Synopsys.
  Use of this program is your acceptance to be bound by the 
  license agreement. HSPICE is the trademark of Synopsys, Inc.
  Input File: C:\Users\Administrator\Desktop\MultiLevel\tcModel.sp              
  lic:  
  lic: FLEXlm: v8.5b 
  lic: USER:   Administrator        HOSTNAME: WIN-HBGPFB5Q4D3 
  lic: HOSTID: "002268384615 005056c00001 005056c00008" PID:      6660 
  lic: Using FLEXlm license file: 
  lic: C:\synopsys\hspice_2009-03.lic 
  lic: Checkout 1 hspice 
  lic: License/Maintenance for hspice will expire on 31-dec-2020/2007.9 
  lic: NODE LOCKED license on hostid "002268384615 005056c00001 005056c00008" 
  lic:   
 Init: read install configuration file: C:\synopsys\Hspice_C-2009.03-SP1\meta.cfg
 Init: hspice initialization file: C:\synopsys\Hspice_C-2009.03-SP1\hspice.ini




1****** HSPICE -- C-2009.03-SP1 32-BIT (May 25 2009) winnt ******               
 ******  
 ** super cell 1 max current

  ******  diode model parameters tnom=  25.000 temp=  25.000 *****
 ********************************************************
 *** common model parameters model name:   0:diode1  ****
 ********************************************************

     names  values   units     names  values   units     names  values   units
     -----  ------   -----     -----  ------   -----     -----  ------   -----

   1*** dc breakdown parameters ***
       vb=   0.    volts        ibv=   1.00m amps   

   2*** parasitic resistance parameters ***
       rs=   0.    ohms   

   3*** capacitance parameters ***
       fc= 500.00m              fcs= 500.00m                m= 500.00m        
     mjsw= 330.00m               pb= 800.00m volts        php= 800.00m volts  
       tt=   0.    secs         cjo=   0.    f/area       cjp=   0.    f/pj   

   4*** temperature effect parameters ***
     tlev=   0.               tlevc=   0.                 tcv=   0.    v/deg k
      trs=   0.    /deg         cta=   0.    /deg         ctp=   0.    /deg   
      xti=   3.00            xtitun=   3.00               keg=   1.00         
       eg=   1.11  ev          gap1= 702.00u  ev/deg     gap2=   1.11k  deg   
     ttt1=   0.    /deg        ttt2=   0.    /deg2        tm1=   0.    /deg   
      tm2=   0.    /deg2        tpb=   0.    v/deg k     tphp=   0.    v/deg k
     tref=  25.00   deg c 

   5*** noise parameters ***
       kf=   0.                  af=   1.00         

   ***  level   1  model parameters  ***

    level=   1.00                is=   3.76u amps         jsw=   0.    amps   
        n=  42.30               nbv=  42.30                ik=   0.    amp    
     area=   1.00                pj=   0.                 ikr=   0.    amp    
    expli=   0.    amps      explir=   0.    amps        jtun=   0.    amps   
   jtunsw=   0.    amps        ntun=  30.00         
  
 ********************************************************
 *** common model parameters model name:   0:diode2  ****
 ********************************************************

     names  values   units     names  values   units     names  values   units
     -----  ------   -----     -----  ------   -----     -----  ------   -----

   1*** dc breakdown parameters ***
       vb=   0.    volts        ibv=   1.00m amps   

   2*** parasitic resistance parameters ***
       rs=   0.    ohms   

   3*** capacitance parameters ***
       fc= 500.00m              fcs= 500.00m                m= 500.00m        
     mjsw= 330.00m               pb= 800.00m volts        php= 800.00m volts  
       tt=   0.    secs         cjo=   0.    f/area       cjp=   0.    f/pj   

   4*** temperature effect parameters ***
     tlev=   0.               tlevc=   0.                 tcv=   0.    v/deg k
      trs=   0.    /deg         cta=   0.    /deg         ctp=   0.    /deg   
      xti=   3.00            xtitun=   3.00               keg=   1.00         
       eg=   1.11  ev          gap1= 702.00u  ev/deg     gap2=   1.11k  deg   
     ttt1=   0.    /deg        ttt2=   0.    /deg2        tm1=   0.    /deg   
      tm2=   0.    /deg2        tpb=   0.    v/deg k     tphp=   0.    v/deg k
     tref=  25.00   deg c 

   5*** noise parameters ***
       kf=   0.                  af=   1.00         

   ***  level   1  model parameters  ***

    level=   1.00                is=  37.60u amps         jsw=   0.    amps   
        n=   1.88               nbv=   1.88                ik=   0.    amp    
     area=   1.00                pj=   0.                 ikr=   0.    amp    
    expli=   0.    amps      explir=   0.    amps        jtun=   0.    amps   
   jtunsw=   0.    amps        ntun=  30.00         
  
 ********************************************************
 *** common model parameters model name:   0:diode3  ****
 ********************************************************

     names  values   units     names  values   units     names  values   units
     -----  ------   -----     -----  ------   -----     -----  ------   -----

   1*** dc breakdown parameters ***
       vb=   0.    volts        ibv=   1.00m amps   

   2*** parasitic resistance parameters ***
       rs=   0.    ohms   

   3*** capacitance parameters ***
       fc= 500.00m              fcs= 500.00m                m= 500.00m        
     mjsw= 330.00m               pb= 800.00m volts        php= 800.00m volts  
       tt=   0.    secs         cjo=   0.    f/area       cjp=   0.    f/pj   

   4*** temperature effect parameters ***
     tlev=   0.               tlevc=   0.                 tcv=   0.    v/deg k
      trs=   0.    /deg         cta=   0.    /deg         ctp=   0.    /deg   
      xti=   3.00            xtitun=   3.00               keg=   1.00         
       eg=   1.11  ev          gap1= 702.00u  ev/deg     gap2=   1.11k  deg   
     ttt1=   0.    /deg        ttt2=   0.    /deg2        tm1=   0.    /deg   
      tm2=   0.    /deg2        tpb=   0.    v/deg k     tphp=   0.    v/deg k
     tref=  25.00   deg c 

   5*** noise parameters ***
       kf=   0.                  af=   1.00         

   ***  level   1  model parameters  ***

    level=   1.00                is= 240.00n amps         jsw=   0.    amps   
        n=   2.70               nbv=   2.70                ik=   0.    amp    
     area=   1.00                pj=   0.                 ikr=   0.    amp    
    expli=   0.    amps      explir=   0.    amps        jtun=   0.    amps   
   jtunsw=   0.    amps        ntun=  30.00         
  
 ********************************************************
 *** common model parameters model name:   0:diode4  ****
 ********************************************************

     names  values   units     names  values   units     names  values   units
     -----  ------   -----     -----  ------   -----     -----  ------   -----

   1*** dc breakdown parameters ***
       vb=   0.    volts        ibv=   1.00m amps   

   2*** parasitic resistance parameters ***
       rs=   0.    ohms   

   3*** capacitance parameters ***
       fc= 500.00m              fcs= 500.00m                m= 500.00m        
     mjsw= 330.00m               pb= 800.00m volts        php= 800.00m volts  
       tt=   0.    secs         cjo=   0.    f/area       cjp=   0.    f/pj   

   4*** temperature effect parameters ***
     tlev=   0.               tlevc=   0.                 tcv=   0.    v/deg k
      trs=   0.    /deg         cta=   0.    /deg         ctp=   0.    /deg   
      xti=   3.00            xtitun=   3.00               keg=   1.00         
       eg=   1.11  ev          gap1= 702.00u  ev/deg     gap2=   1.11k  deg   
     ttt1=   0.    /deg        ttt2=   0.    /deg2        tm1=   0.    /deg   
      tm2=   0.    /deg2        tpb=   0.    v/deg k     tphp=   0.    v/deg k
     tref=  25.00   deg c 

   5*** noise parameters ***
       kf=   0.                  af=   1.00         

   ***  level   1  model parameters  ***

    level=   1.00                is=   2.40u amps         jsw=   0.    amps   
        n= 120.00m              nbv= 120.00m               ik=   0.    amp    
     area=   1.00                pj=   0.                 ikr=   0.    amp    
    expli=   0.    amps      explir=   0.    amps        jtun=   0.    amps   
   jtunsw=   0.    amps        ntun=  30.00         
  
 
      
 *****************************************************************
 ******  option summary
 ******
 runlvl  = 3         bypass  = 2         
 ******  
 ** super cell 1 max current

  ******  dc transfer curves tnom=  25.000 temp=  25.000 *****
x

        volt    voltage      current    
                    out          vds    
    0.            0.           8.0000   
    5.00000m      5.0000m      8.0000   
   10.00000m     10.0000m      8.0000   
   15.00000m     15.0000m      8.0000   
   20.00000m     20.0000m      8.0000   
   25.00000m     25.0000m      8.0000   
   30.00000m     30.0000m      8.0000   
   35.00000m     35.0000m      8.0000   
   40.00000m     40.0000m      8.0000   
   45.00000m     45.0000m      8.0000   
   50.00000m     50.0000m      8.0000   
   55.00000m     55.0000m      8.0000   
   60.00000m     60.0000m      8.0000   
   65.00000m     65.0000m      8.0000   
   70.00000m     70.0000m      8.0000   
   75.00000m     75.0000m      8.0000   
   80.00000m     80.0000m      8.0000   
   85.00000m     85.0000m      8.0000   
   90.00000m     90.0000m      8.0000   
   95.00000m     95.0000m      8.0000   
  100.00000m    100.0000m      8.0000   
  105.00000m    105.0000m      8.0000   
  110.00000m    110.0000m      8.0000   
  115.00000m    115.0000m      8.0000   
  120.00000m    120.0000m      8.0000   
  125.00000m    125.0000m      8.0000   
  130.00000m    130.0000m      8.0000   
  135.00000m    135.0000m      8.0000   
  140.00000m    140.0000m      8.0000   
  145.00000m    145.0000m      8.0000   
  150.00000m    150.0000m      8.0000   
  155.00000m    155.0000m      8.0000   
  160.00000m    160.0000m      8.0000   
  165.00000m    165.0000m      8.0000   
  170.00000m    170.0000m      8.0000   
  175.00000m    175.0000m      7.9999   
  180.00000m    180.0000m      7.9999   
  185.00000m    185.0000m      7.9999   
  190.00000m    190.0000m      7.9999   
  195.00000m    195.0000m      7.9999   
  200.00000m    200.0000m      7.9999   
  205.00000m    205.0000m      7.9999   
  210.00000m    210.0000m      7.9999   
  215.00000m    215.0000m      7.9999   
  220.00000m    220.0000m      7.9999   
  225.00000m    225.0000m      7.9999   
  230.00000m    230.0000m      7.9999   
  235.00000m    235.0000m      7.9999   
  240.00000m    240.0000m      7.9999   
  245.00000m    245.0000m      7.9999   
  250.00000m    250.0000m      7.9999   
  255.00000m    255.0000m      7.9999   
  260.00000m    260.0000m      7.9999   
  265.00000m    265.0000m      7.9999   
  270.00000m    270.0000m      7.9999   
  275.00000m    275.0000m      7.9999   
  280.00000m    280.0000m      7.9999   
  285.00000m    285.0000m      7.9999   
  290.00000m    290.0000m      7.9999   
  295.00000m    295.0000m      7.9999   
  300.00000m    300.0000m      7.9999   
  305.00000m    305.0000m      7.9999   
  310.00000m    310.0000m      7.9999   
  315.00000m    315.0000m      7.9999   
  320.00000m    320.0000m      7.9999   
  325.00000m    325.0000m      7.9999   
  330.00000m    330.0000m      7.9999   
  335.00000m    335.0000m      7.9999   
  340.00000m    340.0000m      7.9999   
  345.00000m    345.0000m      7.9999   
  350.00000m    350.0000m      7.9999   
  355.00000m    355.0000m      7.9999   
  360.00000m    360.0000m      7.9999   
  365.00000m    365.0000m      7.9999   
  370.00000m    370.0000m      7.9999   
  375.00000m    375.0000m      7.9999   
  380.00000m    380.0000m      7.9999   
  385.00000m    385.0000m      7.9999   
  390.00000m    390.0000m      7.9999   
  395.00000m    395.0000m      7.9999   
  400.00000m    400.0000m      7.9999   
  405.00000m    405.0000m      7.9999   
  410.00000m    410.0000m      7.9999   
  415.00000m    415.0000m      7.9999   
  420.00000m    420.0000m      7.9999   
  425.00000m    425.0000m      7.9999   
  430.00000m    430.0000m      7.9999   
  435.00000m    435.0000m      7.9999   
  440.00000m    440.0000m      7.9999   
  445.00000m    445.0000m      7.9999   
  450.00000m    450.0000m      7.9999   
  455.00000m    455.0000m      7.9999   
  460.00000m    460.0000m      7.9999   
  465.00000m    465.0000m      7.9999   
  470.00000m    470.0000m      7.9999   
  475.00000m    475.0000m      7.9999   
  480.00000m    480.0000m      7.9999   
  485.00000m    485.0000m      7.9999   
  490.00000m    490.0000m      7.9999   
  495.00000m    495.0000m      7.9999   
  500.00000m    500.0000m      7.9999   
  505.00000m    505.0000m      7.9999   
  510.00000m    510.0000m      7.9999   
  515.00000m    515.0000m      7.9999   
  520.00000m    520.0000m      7.9999   
  525.00000m    525.0000m      7.9999   
  530.00000m    530.0000m      7.9999   
  535.00000m    535.0000m      7.9999   
  540.00000m    540.0000m      7.9999   
  545.00000m    545.0000m      7.9999   
  550.00000m    550.0000m      7.9999   
  555.00000m    555.0000m      7.9999   
  560.00000m    560.0000m      7.9999   
  565.00000m    565.0000m      7.9999   
  570.00000m    570.0000m      7.9999   
  575.00000m    575.0000m      7.9999   
  580.00000m    580.0000m      7.9999   
  585.00000m    585.0000m      7.9999   
  590.00000m    590.0000m      7.9999   
  595.00000m    595.0000m      7.9999   
  600.00000m    600.0000m      7.9999   
  605.00000m    605.0000m      7.9999   
  610.00000m    610.0000m      7.9999   
  615.00000m    615.0000m      7.9999   
  620.00000m    620.0000m      7.9999   
  625.00000m    625.0000m      7.9999   
  630.00000m    630.0000m      7.9999   
  635.00000m    635.0000m      7.9999   
  640.00000m    640.0000m      7.9999   
  645.00000m    645.0000m      7.9999   
  650.00000m    650.0000m      7.9999   
  655.00000m    655.0000m      7.9999   
  660.00000m    660.0000m      7.9999   
  665.00000m    665.0000m      7.9999   
  670.00000m    670.0000m      7.9999   
  675.00000m    675.0000m      7.9999   
  680.00000m    680.0000m      7.9999   
  685.00000m    685.0000m      7.9999   
  690.00000m    690.0000m      7.9999   
  695.00000m    695.0000m      7.9999   
  700.00000m    700.0000m      7.9999   
  705.00000m    705.0000m      7.9999   
  710.00000m    710.0000m      7.9999   
  715.00000m    715.0000m      7.9999   
  720.00000m    720.0000m      7.9999   
  725.00000m    725.0000m      7.9999   
  730.00000m    730.0000m      7.9999   
  735.00000m    735.0000m      7.9999   
  740.00000m    740.0000m      7.9999   
  745.00000m    745.0000m      7.9999   
  750.00000m    750.0000m      7.9999   
  755.00000m    755.0000m      7.9999   
  760.00000m    760.0000m      7.9999   
  765.00000m    765.0000m      7.9999   
  770.00000m    770.0000m      7.9999   
  775.00000m    775.0000m      7.9999   
  780.00000m    780.0000m      7.9999   
  785.00000m    785.0000m      7.9999   
  790.00000m    790.0000m      7.9999   
  795.00000m    795.0000m      7.9999   
  800.00000m    800.0000m      7.9999   
  805.00000m    805.0000m      7.9999   
  810.00000m    810.0000m      7.9999   
  815.00000m    815.0000m      7.9999   
  820.00000m    820.0000m      7.9999   
  825.00000m    825.0000m      7.9999   
  830.00000m    830.0000m      7.9999   
  835.00000m    835.0000m      7.9999   
  840.00000m    840.0000m      7.9999   
  845.00000m    845.0000m      7.9999   
  850.00000m    850.0000m      7.9999   
  855.00000m    855.0000m      7.9999   
  860.00000m    860.0000m      7.9999   
  865.00000m    865.0000m      7.9999   
  870.00000m    870.0000m      7.9999   
  875.00000m    875.0000m      7.9999   
  880.00000m    880.0000m      7.9999   
  885.00000m    885.0000m      7.9999   
  890.00000m    890.0000m      7.9999   
  895.00000m    895.0000m      7.9999   
  900.00000m    900.0000m      7.9999   
  905.00000m    905.0000m      7.9999   
  910.00000m    910.0000m      7.9999   
  915.00000m    915.0000m      7.9999   
  920.00000m    920.0000m      7.9999   
  925.00000m    925.0000m      7.9999   
  930.00000m    930.0000m      7.9999   
  935.00000m    935.0000m      7.9999   
  940.00000m    940.0000m      7.9999   
  945.00000m    945.0000m      7.9999   
  950.00000m    950.0000m      7.9999   
  955.00000m    955.0000m      7.9999   
  960.00000m    960.0000m      7.9999   
  965.00000m    965.0000m      7.9999   
  970.00000m    970.0000m      7.9999   
  975.00000m    975.0000m      7.9999   
  980.00000m    980.0000m      7.9999   
  985.00000m    985.0000m      7.9999   
  990.00000m    990.0000m      7.9999   
  995.00000m    995.0000m      7.9999   
    1.00000       1.0000       7.9999   
    1.00500       1.0050       7.9999   
    1.01000       1.0100       7.9999   
    1.01500       1.0150       7.9999   
    1.02000       1.0200       7.9999   
    1.02500       1.0250       7.9999   
    1.03000       1.0300       7.9999   
    1.03500       1.0350       7.9999   
    1.04000       1.0400       7.9999   
    1.04500       1.0450       7.9999   
    1.05000       1.0500       7.9999   
    1.05500       1.0550       7.9999   
    1.06000       1.0600       7.9999   
    1.06500       1.0650       7.9999   
    1.07000       1.0700       7.9999   
    1.07500       1.0750       7.9999   
    1.08000       1.0800       7.9999   
    1.08500       1.0850       7.9999   
    1.09000       1.0900       7.9999   
    1.09500       1.0950       7.9999   
    1.10000       1.1000       7.9999   
    1.10500       1.1050       7.9999   
    1.11000       1.1100       7.9999   
    1.11500       1.1150       7.9999   
    1.12000       1.1200       7.9999   
    1.12500       1.1250       7.9999   
    1.13000       1.1300       7.9999   
    1.13500       1.1350       7.9999   
    1.14000       1.1400       7.9999   
    1.14500       1.1450       7.9999   
    1.15000       1.1500       7.9999   
    1.15500       1.1550       7.9999   
    1.16000       1.1600       7.9999   
    1.16500       1.1650       7.9999   
    1.17000       1.1700       7.9999   
    1.17500       1.1750       7.9999   
    1.18000       1.1800       7.9999   
    1.18500       1.1850       7.9999   
    1.19000       1.1900       7.9999   
    1.19500       1.1950       7.9999   
    1.20000       1.2000       7.9999   
    1.20500       1.2050       7.9999   
    1.21000       1.2100       7.9999   
    1.21500       1.2150       7.9999   
    1.22000       1.2200       7.9999   
    1.22500       1.2250       7.9999   
    1.23000       1.2300       7.9999   
    1.23500       1.2350       7.9999   
    1.24000       1.2400       7.9999   
    1.24500       1.2450       7.9999   
    1.25000       1.2500       7.9999   
    1.25500       1.2550       7.9999   
    1.26000       1.2600       7.9999   
    1.26500       1.2650       7.9999   
    1.27000       1.2700       7.9999   
    1.27500       1.2750       7.9999   
    1.28000       1.2800       7.9999   
    1.28500       1.2850       7.9999   
    1.29000       1.2900       7.9999   
    1.29500       1.2950       7.9999   
    1.30000       1.3000       7.9999   
    1.30500       1.3050       7.9999   
    1.31000       1.3100       7.9999   
    1.31500       1.3150       7.9999   
    1.32000       1.3200       7.9999   
    1.32500       1.3250       7.9999   
    1.33000       1.3300       7.9999   
    1.33500       1.3350       7.9999   
    1.34000       1.3400       7.9999   
    1.34500       1.3450       7.9999   
    1.35000       1.3500       7.9999   
    1.35500       1.3550       7.9999   
    1.36000       1.3600       7.9999   
    1.36500       1.3650       7.9999   
    1.37000       1.3700       7.9999   
    1.37500       1.3750       7.9999   
    1.38000       1.3800       7.9999   
    1.38500       1.3850       7.9999   
    1.39000       1.3900       7.9999   
    1.39500       1.3950       7.9999   
    1.40000       1.4000       7.9999   
    1.40500       1.4050       7.9999   
    1.41000       1.4100       7.9999   
    1.41500       1.4150       7.9999   
    1.42000       1.4200       7.9999   
    1.42500       1.4250       7.9999   
    1.43000       1.4300       7.9999   
    1.43500       1.4350       7.9999   
    1.44000       1.4400       7.9999   
    1.44500       1.4450       7.9999   
    1.45000       1.4500       7.9999   
    1.45500       1.4550       7.9999   
    1.46000       1.4600       7.9999   
    1.46500       1.4650       7.9999   
    1.47000       1.4700       7.9999   
    1.47500       1.4750       7.9999   
    1.48000       1.4800       7.9999   
    1.48500       1.4850       7.9999   
    1.49000       1.4900       7.9999   
    1.49500       1.4950       7.9999   
    1.50000       1.5000       7.9999   
    1.50500       1.5050       7.9999   
    1.51000       1.5100       7.9999   
    1.51500       1.5150       7.9999   
    1.52000       1.5200       7.9999   
    1.52500       1.5250       7.9999   
    1.53000       1.5300       7.9999   
    1.53500       1.5350       7.9999   
    1.54000       1.5400       7.9999   
    1.54500       1.5450       7.9999   
    1.55000       1.5500       7.9999   
    1.55500       1.5550       7.9999   
    1.56000       1.5600       7.9999   
    1.56500       1.5650       7.9999   
    1.57000       1.5700       7.9999   
    1.57500       1.5750       7.9999   
    1.58000       1.5800       7.9999   
    1.58500       1.5850       7.9999   
    1.59000       1.5900       7.9999   
    1.59500       1.5950       7.9999   
    1.60000       1.6000       7.9999   
    1.60500       1.6050       7.9999   
    1.61000       1.6100       7.9999   
    1.61500       1.6150       7.9999   
    1.62000       1.6200       7.9999   
    1.62500       1.6250       7.9999   
    1.63000       1.6300       7.9999   
    1.63500       1.6350       7.9999   
    1.64000       1.6400       7.9999   
    1.64500       1.6450       7.9999   
    1.65000       1.6500       7.9999   
    1.65500       1.6550       7.9999   
    1.66000       1.6600       7.9999   
    1.66500       1.6650       7.9999   
    1.67000       1.6700       7.9999   
    1.67500       1.6750       7.9999   
    1.68000       1.6800       7.9999   
    1.68500       1.6850       7.9999   
    1.69000       1.6900       7.9999   
    1.69500       1.6950       7.9999   
    1.70000       1.7000       7.9999   
    1.70500       1.7050       7.9999   
    1.71000       1.7100       7.9999   
    1.71500       1.7150       7.9999   
    1.72000       1.7200       7.9999   
    1.72500       1.7250       7.9999   
    1.73000       1.7300       7.9999   
    1.73500       1.7350       7.9999   
    1.74000       1.7400       7.9999   
    1.74500       1.7450       7.9999   
    1.75000       1.7500       7.9999   
    1.75500       1.7550       7.9999   
    1.76000       1.7600       7.9999   
    1.76500       1.7650       7.9999   
    1.77000       1.7700       7.9999   
    1.77500       1.7750       7.9999   
    1.78000       1.7800       7.9999   
    1.78500       1.7850       7.9999   
    1.79000       1.7900       7.9999   
    1.79500       1.7950       7.9999   
    1.80000       1.8000       7.9999   
    1.80500       1.8050       7.9999   
    1.81000       1.8100       7.9999   
    1.81500       1.8150       7.9999   
    1.82000       1.8200       7.9999   
    1.82500       1.8250       7.9999   
    1.83000       1.8300       7.9999   
    1.83500       1.8350       7.9999   
    1.84000       1.8400       7.9999   
    1.84500       1.8450       7.9999   
    1.85000       1.8500       7.9999   
    1.85500       1.8550       7.9999   
    1.86000       1.8600       7.9999   
    1.86500       1.8650       7.9999   
    1.87000       1.8700       7.9999   
    1.87500       1.8750       7.9999   
    1.88000       1.8800       7.9999   
    1.88500       1.8850       7.9999   
    1.89000       1.8900       7.9999   
    1.89500       1.8950       7.9999   
    1.90000       1.9000       7.9999   
    1.90500       1.9050       7.9999   
    1.91000       1.9100       7.9999   
    1.91500       1.9150       7.9999   
    1.92000       1.9200       7.9999   
    1.92500       1.9250       7.9999   
    1.93000       1.9300       7.9999   
    1.93500       1.9350       7.9999   
    1.94000       1.9400       7.9999   
    1.94500       1.9450       7.9999   
    1.95000       1.9500       7.9999   
    1.95500       1.9550       7.9999   
    1.96000       1.9600       7.9999   
    1.96500       1.9650       7.9999   
    1.97000       1.9700       7.9999   
    1.97500       1.9750       7.9999   
    1.98000       1.9800       7.9999   
    1.98500       1.9850       7.9999   
    1.99000       1.9900       7.9999   
    1.99500       1.9950       7.9999   
    2.00000       2.0000       7.9999   
    2.00500       2.0050       7.9999   
    2.01000       2.0100       7.9999   
    2.01500       2.0150       7.9999   
    2.02000       2.0200       7.9999   
    2.02500       2.0250       7.9999   
    2.03000       2.0300       7.9999   
    2.03500       2.0350       7.9999   
    2.04000       2.0400       7.9999   
    2.04500       2.0450       7.9999   
    2.05000       2.0500       7.9999   
    2.05500       2.0550       7.9999   
    2.06000       2.0600       7.9999   
    2.06500       2.0650       7.9999   
    2.07000       2.0700       7.9999   
    2.07500       2.0750       7.9999   
    2.08000       2.0800       7.9999   
    2.08500       2.0850       7.9999   
    2.09000       2.0900       7.9999   
    2.09500       2.0950       7.9999   
    2.10000       2.1000       7.9999   
    2.10500       2.1050       7.9999   
    2.11000       2.1100       7.9999   
    2.11500       2.1150       7.9999   
    2.12000       2.1200       7.9999   
    2.12500       2.1250       7.9999   
    2.13000       2.1300       7.9999   
    2.13500       2.1350       7.9999   
    2.14000       2.1400       7.9999   
    2.14500       2.1450       7.9999   
    2.15000       2.1500       7.9999   
    2.15500       2.1550       7.9999   
    2.16000       2.1600       7.9999   
    2.16500       2.1650       7.9999   
    2.17000       2.1700       7.9999   
    2.17500       2.1750       7.9999   
    2.18000       2.1800       7.9999   
    2.18500       2.1850       7.9999   
    2.19000       2.1900       7.9999   
    2.19500       2.1950       7.9999   
    2.20000       2.2000       7.9999   
    2.20500       2.2050       7.9999   
    2.21000       2.2100       7.9999   
    2.21500       2.2150       7.9999   
    2.22000       2.2200       7.9999   
    2.22500       2.2250       7.9999   
    2.23000       2.2300       7.9999   
    2.23500       2.2350       7.9999   
    2.24000       2.2400       7.9999   
    2.24500       2.2450       7.9999   
    2.25000       2.2500       7.9999   
    2.25500       2.2550       7.9999   
    2.26000       2.2600       7.9999   
    2.26500       2.2650       7.9999   
    2.27000       2.2700       7.9999   
    2.27500       2.2750       7.9999   
    2.28000       2.2800       7.9999   
    2.28500       2.2850       7.9999   
    2.29000       2.2900       7.9999   
    2.29500       2.2950       7.9999   
    2.30000       2.3000       7.9999   
    2.30500       2.3050       7.9999   
    2.31000       2.3100       7.9999   
    2.31500       2.3150       7.9999   
    2.32000       2.3200       7.9999   
    2.32500       2.3250       7.9999   
    2.33000       2.3300       7.9999   
    2.33500       2.3350       7.9999   
    2.34000       2.3400       7.9999   
    2.34500       2.3450       7.9999   
    2.35000       2.3500       7.9999   
    2.35500       2.3550       7.9999   
    2.36000       2.3600       7.9999   
    2.36500       2.3650       7.9999   
    2.37000       2.3700       7.9999   
    2.37500       2.3750       7.9999   
    2.38000       2.3800       7.9999   
    2.38500       2.3850       7.9999   
    2.39000       2.3900       7.9999   
    2.39500       2.3950       7.9999   
    2.40000       2.4000       7.9999   
    2.40500       2.4050       7.9999   
    2.41000       2.4100       7.9999   
    2.41500       2.4150       7.9999   
    2.42000       2.4200       7.9999   
    2.42500       2.4250       7.9999   
    2.43000       2.4300       7.9999   
    2.43500       2.4350       7.9999   
    2.44000       2.4400       7.9998   
    2.44500       2.4450       7.9998   
    2.45000       2.4500       7.9998   
    2.45500       2.4550       7.9998   
    2.46000       2.4600       7.9998   
    2.46500       2.4650       7.9998   
    2.47000       2.4700       7.9998   
    2.47500       2.4750       7.9998   
    2.48000       2.4800       7.9998   
    2.48500       2.4850       7.9998   
    2.49000       2.4900       7.9998   
    2.49500       2.4950       7.9998   
    2.50000       2.5000       7.9998   
    2.50500       2.5050       7.9998   
    2.51000       2.5100       7.9998   
    2.51500       2.5150       7.9998   
    2.52000       2.5200       7.9998   
    2.52500       2.5250       7.9998   
    2.53000       2.5300       7.9998   
    2.53500       2.5350       7.9998   
    2.54000       2.5400       7.9998   
    2.54500       2.5450       7.9998   
    2.55000       2.5500       7.9998   
    2.55500       2.5550       7.9998   
    2.56000       2.5600       7.9998   
    2.56500       2.5650       7.9998   
    2.57000       2.5700       7.9998   
    2.57500       2.5750       7.9998   
    2.58000       2.5800       7.9998   
    2.58500       2.5850       7.9998   
    2.59000       2.5900       7.9998   
    2.59500       2.5950       7.9998   
    2.60000       2.6000       7.9998   
    2.60500       2.6050       7.9998   
    2.61000       2.6100       7.9998   
    2.61500       2.6150       7.9998   
    2.62000       2.6200       7.9998   
    2.62500       2.6250       7.9998   
    2.63000       2.6300       7.9998   
    2.63500       2.6350       7.9998   
    2.64000       2.6400       7.9998   
    2.64500       2.6450       7.9998   
    2.65000       2.6500       7.9998   
    2.65500       2.6550       7.9998   
    2.66000       2.6600       7.9998   
    2.66500       2.6650       7.9998   
    2.67000       2.6700       7.9998   
    2.67500       2.6750       7.9998   
    2.68000       2.6800       7.9998   
    2.68500       2.6850       7.9998   
    2.69000       2.6900       7.9998   
    2.69500       2.6950       7.9998   
    2.70000       2.7000       7.9998   
    2.70500       2.7050       7.9998   
    2.71000       2.7100       7.9998   
    2.71500       2.7150       7.9998   
    2.72000       2.7200       7.9998   
    2.72500       2.7250       7.9998   
    2.73000       2.7300       7.9998   
    2.73500       2.7350       7.9998   
    2.74000       2.7400       7.9998   
    2.74500       2.7450       7.9998   
    2.75000       2.7500       7.9998   
    2.75500       2.7550       7.9998   
    2.76000       2.7600       7.9998   
    2.76500       2.7650       7.9998   
    2.77000       2.7700       7.9998   
    2.77500       2.7750       7.9998   
    2.78000       2.7800       7.9998   
    2.78500       2.7850       7.9998   
    2.79000       2.7900       7.9998   
    2.79500       2.7950       7.9998   
    2.80000       2.8000       7.9998   
    2.80500       2.8050       7.9998   
    2.81000       2.8100       7.9998   
    2.81500       2.8150       7.9998   
    2.82000       2.8200       7.9998   
    2.82500       2.8250       7.9998   
    2.83000       2.8300       7.9998   
    2.83500       2.8350       7.9998   
    2.84000       2.8400       7.9998   
    2.84500       2.8450       7.9998   
    2.85000       2.8500       7.9998   
    2.85500       2.8550       7.9998   
    2.86000       2.8600       7.9998   
    2.86500       2.8650       7.9998   
    2.87000       2.8700       7.9998   
    2.87500       2.8750       7.9998   
    2.88000       2.8800       7.9998   
    2.88500       2.8850       7.9998   
    2.89000       2.8900       7.9998   
    2.89500       2.8950       7.9998   
    2.90000       2.9000       7.9998   
    2.90500       2.9050       7.9998   
    2.91000       2.9100       7.9998   
    2.91500       2.9150       7.9998   
    2.92000       2.9200       7.9998   
    2.92500       2.9250       7.9998   
    2.93000       2.9300       7.9998   
    2.93500       2.9350       7.9998   
    2.94000       2.9400       7.9998   
    2.94500       2.9450       7.9998   
    2.95000       2.9500       7.9998   
    2.95500       2.9550       7.9998   
    2.96000       2.9600       7.9998   
    2.96500       2.9650       7.9998   
    2.97000       2.9700       7.9998   
    2.97500       2.9750       7.9998   
    2.98000       2.9800       7.9998   
    2.98500       2.9850       7.9998   
    2.99000       2.9900       7.9998   
    2.99500       2.9950       7.9998   
    3.00000       3.0000       7.9998   
    3.00500       3.0050       7.9998   
    3.01000       3.0100       7.9998   
    3.01500       3.0150       7.9998   
    3.02000       3.0200       7.9998   
    3.02500       3.0250       7.9998   
    3.03000       3.0300       7.9998   
    3.03500       3.0350       7.9998   
    3.04000       3.0400       7.9998   
    3.04500       3.0450       7.9998   
    3.05000       3.0500       7.9998   
    3.05500       3.0550       7.9998   
    3.06000       3.0600       7.9998   
    3.06500       3.0650       7.9998   
    3.07000       3.0700       7.9998   
    3.07500       3.0750       7.9998   
    3.08000       3.0800       7.9998   
    3.08500       3.0850       7.9998   
    3.09000       3.0900       7.9998   
    3.09500       3.0950       7.9998   
    3.10000       3.1000       7.9998   
    3.10500       3.1050       7.9998   
    3.11000       3.1100       7.9998   
    3.11500       3.1150       7.9998   
    3.12000       3.1200       7.9998   
    3.12500       3.1250       7.9998   
    3.13000       3.1300       7.9998   
    3.13500       3.1350       7.9998   
    3.14000       3.1400       7.9998   
    3.14500       3.1450       7.9998   
    3.15000       3.1500       7.9998   
    3.15500       3.1550       7.9998   
    3.16000       3.1600       7.9998   
    3.16500       3.1650       7.9998   
    3.17000       3.1700       7.9998   
    3.17500       3.1750       7.9998   
    3.18000       3.1800       7.9998   
    3.18500       3.1850       7.9998   
    3.19000       3.1900       7.9998   
    3.19500       3.1950       7.9998   
    3.20000       3.2000       7.9998   
    3.20500       3.2050       7.9998   
    3.21000       3.2100       7.9998   
    3.21500       3.2150       7.9998   
    3.22000       3.2200       7.9998   
    3.22500       3.2250       7.9998   
    3.23000       3.2300       7.9998   
    3.23500       3.2350       7.9998   
    3.24000       3.2400       7.9998   
    3.24500       3.2450       7.9998   
    3.25000       3.2500       7.9998   
    3.25500       3.2550       7.9998   
    3.26000       3.2600       7.9998   
    3.26500       3.2650       7.9998   
    3.27000       3.2700       7.9998   
    3.27500       3.2750       7.9998   
    3.28000       3.2800       7.9998   
    3.28500       3.2850       7.9998   
    3.29000       3.2900       7.9998   
    3.29500       3.2950       7.9998   
    3.30000       3.3000       7.9998   
    3.30500       3.3050       7.9998   
    3.31000       3.3100       7.9998   
    3.31500       3.3150       7.9998   
    3.32000       3.3200       7.9998   
    3.32500       3.3250       7.9998   
    3.33000       3.3300       7.9998   
    3.33500       3.3350       7.9998   
    3.34000       3.3400       7.9998   
    3.34500       3.3450       7.9998   
    3.35000       3.3500       7.9998   
    3.35500       3.3550       7.9998   
    3.36000       3.3600       7.9998   
    3.36500       3.3650       7.9998   
    3.37000       3.3700       7.9998   
    3.37500       3.3750       7.9998   
    3.38000       3.3800       7.9998   
    3.38500       3.3850       7.9998   
    3.39000       3.3900       7.9998   
    3.39500       3.3950       7.9998   
    3.40000       3.4000       7.9998   
    3.40500       3.4050       7.9998   
    3.41000       3.4100       7.9998   
    3.41500       3.4150       7.9998   
    3.42000       3.4200       7.9998   
    3.42500       3.4250       7.9998   
    3.43000       3.4300       7.9998   
    3.43500       3.4350       7.9998   
    3.44000       3.4400       7.9998   
    3.44500       3.4450       7.9998   
    3.45000       3.4500       7.9998   
    3.45500       3.4550       7.9998   
    3.46000       3.4600       7.9998   
    3.46500       3.4650       7.9998   
    3.47000       3.4700       7.9998   
    3.47500       3.4750       7.9998   
    3.48000       3.4800       7.9998   
    3.48500       3.4850       7.9998   
    3.49000       3.4900       7.9998   
    3.49500       3.4950       7.9998   
    3.50000       3.5000       7.9998   
    3.50500       3.5050       7.9998   
    3.51000       3.5100       7.9998   
    3.51500       3.5150       7.9998   
    3.52000       3.5200       7.9998   
    3.52500       3.5250       7.9998   
    3.53000       3.5300       7.9998   
    3.53500       3.5350       7.9998   
    3.54000       3.5400       7.9998   
    3.54500       3.5450       7.9998   
    3.55000       3.5500       7.9998   
    3.55500       3.5550       7.9998   
    3.56000       3.5600       7.9998   
    3.56500       3.5650       7.9998   
    3.57000       3.5700       7.9998   
    3.57500       3.5750       7.9998   
    3.58000       3.5800       7.9998   
    3.58500       3.5850       7.9998   
    3.59000       3.5900       7.9998   
    3.59500       3.5950       7.9998   
    3.60000       3.6000       7.9998   
    3.60500       3.6050       7.9998   
    3.61000       3.6100       7.9997   
    3.61500       3.6150       7.9997   
    3.62000       3.6200       7.9997   
    3.62500       3.6250       7.9997   
    3.63000       3.6300       7.9997   
    3.63500       3.6350       7.9997   
    3.64000       3.6400       7.9997   
    3.64500       3.6450       7.9997   
    3.65000       3.6500       7.9997   
    3.65500       3.6550       7.9997   
    3.66000       3.6600       7.9997   
    3.66500       3.6650       7.9997   
    3.67000       3.6700       7.9997   
    3.67500       3.6750       7.9997   
    3.68000       3.6800       7.9997   
    3.68500       3.6850       7.9997   
    3.69000       3.6900       7.9997   
    3.69500       3.6950       7.9997   
    3.70000       3.7000       7.9997   
    3.70500       3.7050       7.9997   
    3.71000       3.7100       7.9997   
    3.71500       3.7150       7.9997   
    3.72000       3.7200       7.9997   
    3.72500       3.7250       7.9997   
    3.73000       3.7300       7.9997   
    3.73500       3.7350       7.9997   
    3.74000       3.7400       7.9997   
    3.74500       3.7450       7.9997   
    3.75000       3.7500       7.9997   
    3.75500       3.7550       7.9997   
    3.76000       3.7600       7.9997   
    3.76500       3.7650       7.9997   
    3.77000       3.7700       7.9997   
    3.77500       3.7750       7.9997   
    3.78000       3.7800       7.9997   
    3.78500       3.7850       7.9997   
    3.79000       3.7900       7.9997   
    3.79500       3.7950       7.9997   
    3.80000       3.8000       7.9997   
    3.80500       3.8050       7.9997   
    3.81000       3.8100       7.9997   
    3.81500       3.8150       7.9997   
    3.82000       3.8200       7.9997   
    3.82500       3.8250       7.9997   
    3.83000       3.8300       7.9997   
    3.83500       3.8350       7.9997   
    3.84000       3.8400       7.9997   
    3.84500       3.8450       7.9997   
    3.85000       3.8500       7.9997   
    3.85500       3.8550       7.9997   
    3.86000       3.8600       7.9997   
    3.86500       3.8650       7.9997   
    3.87000       3.8700       7.9997   
    3.87500       3.8750       7.9997   
    3.88000       3.8800       7.9997   
    3.88500       3.8850       7.9997   
    3.89000       3.8900       7.9997   
    3.89500       3.8950       7.9997   
    3.90000       3.9000       7.9997   
    3.90500       3.9050       7.9997   
    3.91000       3.9100       7.9997   
    3.91500       3.9150       7.9997   
    3.92000       3.9200       7.9997   
    3.92500       3.9250       7.9997   
    3.93000       3.9300       7.9997   
    3.93500       3.9350       7.9997   
    3.94000       3.9400       7.9997   
    3.94500       3.9450       7.9997   
    3.95000       3.9500       7.9997   
    3.95500       3.9550       7.9997   
    3.96000       3.9600       7.9997   
    3.96500       3.9650       7.9997   
    3.97000       3.9700       7.9997   
    3.97500       3.9750       7.9997   
    3.98000       3.9800       7.9997   
    3.98500       3.9850       7.9997   
    3.99000       3.9900       7.9997   
    3.99500       3.9950       7.9997   
    4.00000       4.0000       7.9997   
    4.00500       4.0050       7.9997   
    4.01000       4.0100       7.9997   
    4.01500       4.0150       7.9997   
    4.02000       4.0200       7.9997   
    4.02500       4.0250       7.9997   
    4.03000       4.0300       7.9997   
    4.03500       4.0350       7.9997   
    4.04000       4.0400       7.9997   
    4.04500       4.0450       7.9997   
    4.05000       4.0500       7.9997   
    4.05500       4.0550       7.9997   
    4.06000       4.0600       7.9997   
    4.06500       4.0650       7.9997   
    4.07000       4.0700       7.9997   
    4.07500       4.0750       7.9997   
    4.08000       4.0800       7.9997   
    4.08500       4.0850       7.9997   
    4.09000       4.0900       7.9997   
    4.09500       4.0950       7.9997   
    4.10000       4.1000       7.9997   
    4.10500       4.1050       7.9997   
    4.11000       4.1100       7.9997   
    4.11500       4.1150       7.9997   
    4.12000       4.1200       7.9997   
    4.12500       4.1250       7.9997   
    4.13000       4.1300       7.9997   
    4.13500       4.1350       7.9997   
    4.14000       4.1400       7.9997   
    4.14500       4.1450       7.9997   
    4.15000       4.1500       7.9997   
    4.15500       4.1550       7.9997   
    4.16000       4.1600       7.9997   
    4.16500       4.1650       7.9997   
    4.17000       4.1700       7.9997   
    4.17500       4.1750       7.9997   
    4.18000       4.1800       7.9997   
    4.18500       4.1850       7.9997   
    4.19000       4.1900       7.9997   
    4.19500       4.1950       7.9997   
    4.20000       4.2000       7.9997   
    4.20500       4.2050       7.9997   
    4.21000       4.2100       7.9997   
    4.21500       4.2150       7.9997   
    4.22000       4.2200       7.9997   
    4.22500       4.2250       7.9997   
    4.23000       4.2300       7.9997   
    4.23500       4.2350       7.9997   
    4.24000       4.2400       7.9997   
    4.24500       4.2450       7.9997   
    4.25000       4.2500       7.9997   
    4.25500       4.2550       7.9997   
    4.26000       4.2600       7.9997   
    4.26500       4.2650       7.9996   
    4.27000       4.2700       7.9996   
    4.27500       4.2750       7.9996   
    4.28000       4.2800       7.9996   
    4.28500       4.2850       7.9996   
    4.29000       4.2900       7.9996   
    4.29500       4.2950       7.9996   
    4.30000       4.3000       7.9996   
    4.30500       4.3050       7.9996   
    4.31000       4.3100       7.9996   
    4.31500       4.3150       7.9996   
    4.32000       4.3200       7.9996   
    4.32500       4.3250       7.9996   
    4.33000       4.3300       7.9996   
    4.33500       4.3350       7.9996   
    4.34000       4.3400       7.9996   
    4.34500       4.3450       7.9996   
    4.35000       4.3500       7.9996   
    4.35500       4.3550       7.9996   
    4.36000       4.3600       7.9996   
    4.36500       4.3650       7.9996   
    4.37000       4.3700       7.9996   
    4.37500       4.3750       7.9996   
    4.38000       4.3800       7.9996   
    4.38500       4.3850       7.9996   
    4.39000       4.3900       7.9996   
    4.39500       4.3950       7.9996   
    4.40000       4.4000       7.9996   
    4.40500       4.4050       7.9996   
    4.41000       4.4100       7.9996   
    4.41500       4.4150       7.9996   
    4.42000       4.4200       7.9996   
    4.42500       4.4250       7.9996   
    4.43000       4.4300       7.9996   
    4.43500       4.4350       7.9996   
    4.44000       4.4400       7.9996   
    4.44500       4.4450       7.9996   
    4.45000       4.4500       7.9996   
    4.45500       4.4550       7.9996   
    4.46000       4.4600       7.9996   
    4.46500       4.4650       7.9996   
    4.47000       4.4700       7.9996   
    4.47500       4.4750       7.9996   
    4.48000       4.4800       7.9996   
    4.48500       4.4850       7.9996   
    4.49000       4.4900       7.9996   
    4.49500       4.4950       7.9996   
    4.50000       4.5000       7.9996   
    4.50500       4.5050       7.9996   
    4.51000       4.5100       7.9996   
    4.51500       4.5150       7.9996   
    4.52000       4.5200       7.9996   
    4.52500       4.5250       7.9996   
    4.53000       4.5300       7.9996   
    4.53500       4.5350       7.9996   
    4.54000       4.5400       7.9996   
    4.54500       4.5450       7.9996   
    4.55000       4.5500       7.9996   
    4.55500       4.5550       7.9996   
    4.56000       4.5600       7.9996   
    4.56500       4.5650       7.9996   
    4.57000       4.5700       7.9996   
    4.57500       4.5750       7.9996   
    4.58000       4.5800       7.9996   
    4.58500       4.5850       7.9996   
    4.59000       4.5900       7.9996   
    4.59500       4.5950       7.9996   
    4.60000       4.6000       7.9996   
    4.60500       4.6050       7.9996   
    4.61000       4.6100       7.9996   
    4.61500       4.6150       7.9996   
    4.62000       4.6200       7.9996   
    4.62500       4.6250       7.9996   
    4.63000       4.6300       7.9996   
    4.63500       4.6350       7.9996   
    4.64000       4.6400       7.9996   
    4.64500       4.6450       7.9996   
    4.65000       4.6500       7.9996   
    4.65500       4.6550       7.9996   
    4.66000       4.6600       7.9996   
    4.66500       4.6650       7.9996   
    4.67000       4.6700       7.9996   
    4.67500       4.6750       7.9996   
    4.68000       4.6800       7.9996   
    4.68500       4.6850       7.9996   
    4.69000       4.6900       7.9996   
    4.69500       4.6950       7.9996   
    4.70000       4.7000       7.9995   
    4.70500       4.7050       7.9995   
    4.71000       4.7100       7.9995   
    4.71500       4.7150       7.9995   
    4.72000       4.7200       7.9995   
    4.72500       4.7250       7.9995   
    4.73000       4.7300       7.9995   
    4.73500       4.7350       7.9995   
    4.74000       4.7400       7.9995   
    4.74500       4.7450       7.9995   
    4.75000       4.7500       7.9995   
    4.75500       4.7550       7.9995   
    4.76000       4.7600       7.9995   
    4.76500       4.7650       7.9995   
    4.77000       4.7700       7.9995   
    4.77500       4.7750       7.9995   
    4.78000       4.7800       7.9995   
    4.78500       4.7850       7.9995   
    4.79000       4.7900       7.9995   
    4.79500       4.7950       7.9995   
    4.80000       4.8000       7.9995   
    4.80500       4.8050       7.9995   
    4.81000       4.8100       7.9995   
    4.81500       4.8150       7.9995   
    4.82000       4.8200       7.9995   
    4.82500       4.8250       7.9995   
    4.83000       4.8300       7.9995   
    4.83500       4.8350       7.9995   
    4.84000       4.8400       7.9995   
    4.84500       4.8450       7.9995   
    4.85000       4.8500       7.9995   
    4.85500       4.8550       7.9995   
    4.86000       4.8600       7.9995   
    4.86500       4.8650       7.9995   
    4.87000       4.8700       7.9995   
    4.87500       4.8750       7.9995   
    4.88000       4.8800       7.9995   
    4.88500       4.8850       7.9995   
    4.89000       4.8900       7.9995   
    4.89500       4.8950       7.9995   
    4.90000       4.9000       7.9995   
    4.90500       4.9050       7.9995   
    4.91000       4.9100       7.9995   
    4.91500       4.9150       7.9995   
    4.92000       4.9200       7.9995   
    4.92500       4.9250       7.9995   
    4.93000       4.9300       7.9995   
    4.93500       4.9350       7.9995   
    4.94000       4.9400       7.9995   
    4.94500       4.9450       7.9995   
    4.95000       4.9500       7.9995   
    4.95500       4.9550       7.9995   
    4.96000       4.9600       7.9995   
    4.96500       4.9650       7.9995   
    4.97000       4.9700       7.9995   
    4.97500       4.9750       7.9995   
    4.98000       4.9800       7.9995   
    4.98500       4.9850       7.9995   
    4.99000       4.9900       7.9995   
    4.99500       4.9950       7.9995   
    5.00000       5.0000       7.9995   
    5.00500       5.0050       7.9995   
    5.01000       5.0100       7.9995   
    5.01500       5.0150       7.9995   
    5.02000       5.0200       7.9995   
    5.02500       5.0250       7.9995   
    5.03000       5.0300       7.9994   
    5.03500       5.0350       7.9994   
    5.04000       5.0400       7.9994   
    5.04500       5.0450       7.9994   
    5.05000       5.0500       7.9994   
    5.05500       5.0550       7.9994   
    5.06000       5.0600       7.9994   
    5.06500       5.0650       7.9994   
    5.07000       5.0700       7.9994   
    5.07500       5.0750       7.9994   
    5.08000       5.0800       7.9994   
    5.08500       5.0850       7.9994   
    5.09000       5.0900       7.9994   
    5.09500       5.0950       7.9994   
    5.10000       5.1000       7.9994   
    5.10500       5.1050       7.9994   
    5.11000       5.1100       7.9994   
    5.11500       5.1150       7.9994   
    5.12000       5.1200       7.9994   
    5.12500       5.1250       7.9994   
    5.13000       5.1300       7.9994   
    5.13500       5.1350       7.9994   
    5.14000       5.1400       7.9994   
    5.14500       5.1450       7.9994   
    5.15000       5.1500       7.9994   
    5.15500       5.1550       7.9994   
    5.16000       5.1600       7.9994   
    5.16500       5.1650       7.9994   
    5.17000       5.1700       7.9994   
    5.17500       5.1750       7.9994   
    5.18000       5.1800       7.9994   
    5.18500       5.1850       7.9994   
    5.19000       5.1900       7.9994   
    5.19500       5.1950       7.9994   
    5.20000       5.2000       7.9994   
    5.20500       5.2050       7.9994   
    5.21000       5.2100       7.9994   
    5.21500       5.2150       7.9994   
    5.22000       5.2200       7.9994   
    5.22500       5.2250       7.9994   
    5.23000       5.2300       7.9994   
    5.23500       5.2350       7.9994   
    5.24000       5.2400       7.9994   
    5.24500       5.2450       7.9994   
    5.25000       5.2500       7.9994   
    5.25500       5.2550       7.9994   
    5.26000       5.2600       7.9994   
    5.26500       5.2650       7.9994   
    5.27000       5.2700       7.9994   
    5.27500       5.2750       7.9994   
    5.28000       5.2800       7.9994   
    5.28500       5.2850       7.9994   
    5.29000       5.2900       7.9993   
    5.29500       5.2950       7.9993   
    5.30000       5.3000       7.9993   
    5.30500       5.3050       7.9993   
    5.31000       5.3100       7.9993   
    5.31500       5.3150       7.9993   
    5.32000       5.3200       7.9993   
    5.32500       5.3250       7.9993   
    5.33000       5.3300       7.9993   
    5.33500       5.3350       7.9993   
    5.34000       5.3400       7.9993   
    5.34500       5.3450       7.9993   
    5.35000       5.3500       7.9993   
    5.35500       5.3550       7.9993   
    5.36000       5.3600       7.9993   
    5.36500       5.3650       7.9993   
    5.37000       5.3700       7.9993   
    5.37500       5.3750       7.9993   
    5.38000       5.3800       7.9993   
    5.38500       5.3850       7.9993   
    5.39000       5.3900       7.9993   
    5.39500       5.3950       7.9993   
    5.40000       5.4000       7.9993   
    5.40500       5.4050       7.9993   
    5.41000       5.4100       7.9993   
    5.41500       5.4150       7.9993   
    5.42000       5.4200       7.9993   
    5.42500       5.4250       7.9993   
    5.43000       5.4300       7.9993   
    5.43500       5.4350       7.9993   
    5.44000       5.4400       7.9993   
    5.44500       5.4450       7.9993   
    5.45000       5.4500       7.9993   
    5.45500       5.4550       7.9993   
    5.46000       5.4600       7.9993   
    5.46500       5.4650       7.9993   
    5.47000       5.4700       7.9993   
    5.47500       5.4750       7.9993   
    5.48000       5.4800       7.9993   
    5.48500       5.4850       7.9993   
    5.49000       5.4900       7.9993   
    5.49500       5.4950       7.9993   
    5.50000       5.5000       7.9992   
    5.50500       5.5050       7.9992   
    5.51000       5.5100       7.9992   
    5.51500       5.5150       7.9992   
    5.52000       5.5200       7.9992   
    5.52500       5.5250       7.9992   
    5.53000       5.5300       7.9992   
    5.53500       5.5350       7.9992   
    5.54000       5.5400       7.9992   
    5.54500       5.5450       7.9992   
    5.55000       5.5500       7.9992   
    5.55500       5.5550       7.9992   
    5.56000       5.5600       7.9992   
    5.56500       5.5650       7.9992   
    5.57000       5.5700       7.9992   
    5.57500       5.5750       7.9992   
    5.58000       5.5800       7.9992   
    5.58500       5.5850       7.9992   
    5.59000       5.5900       7.9992   
    5.59500       5.5950       7.9992   
    5.60000       5.6000       7.9992   
    5.60500       5.6050       7.9992   
    5.61000       5.6100       7.9992   
    5.61500       5.6150       7.9992   
    5.62000       5.6200       7.9992   
    5.62500       5.6250       7.9992   
    5.63000       5.6300       7.9992   
    5.63500       5.6350       7.9992   
    5.64000       5.6400       7.9992   
    5.64500       5.6450       7.9992   
    5.65000       5.6500       7.9992   
    5.65500       5.6550       7.9992   
    5.66000       5.6600       7.9992   
    5.66500       5.6650       7.9992   
    5.67000       5.6700       7.9992   
    5.67500       5.6750       7.9992   
    5.68000       5.6800       7.9992   
    5.68500       5.6850       7.9991   
    5.69000       5.6900       7.9991   
    5.69500       5.6950       7.9991   
    5.70000       5.7000       7.9991   
    5.70500       5.7050       7.9991   
    5.71000       5.7100       7.9991   
    5.71500       5.7150       7.9991   
    5.72000       5.7200       7.9991   
    5.72500       5.7250       7.9991   
    5.73000       5.7300       7.9991   
    5.73500       5.7350       7.9991   
    5.74000       5.7400       7.9991   
    5.74500       5.7450       7.9991   
    5.75000       5.7500       7.9991   
    5.75500       5.7550       7.9991   
    5.76000       5.7600       7.9991   
    5.76500       5.7650       7.9991   
    5.77000       5.7700       7.9991   
    5.77500       5.7750       7.9991   
    5.78000       5.7800       7.9991   
    5.78500       5.7850       7.9991   
    5.79000       5.7900       7.9991   
    5.79500       5.7950       7.9991   
    5.80000       5.8000       7.9991   
    5.80500       5.8050       7.9991   
    5.81000       5.8100       7.9991   
    5.81500       5.8150       7.9991   
    5.82000       5.8200       7.9991   
    5.82500       5.8250       7.9991   
    5.83000       5.8300       7.9991   
    5.83500       5.8350       7.9991   
    5.84000       5.8400       7.9990   
    5.84500       5.8450       7.9990   
    5.85000       5.8500       7.9990   
    5.85500       5.8550       7.9990   
    5.86000       5.8600       7.9990   
    5.86500       5.8650       7.9990   
    5.87000       5.8700       7.9990   
    5.87500       5.8750       7.9990   
    5.88000       5.8800       7.9990   
    5.88500       5.8850       7.9990   
    5.89000       5.8900       7.9990   
    5.89500       5.8950       7.9990   
    5.90000       5.9000       7.9990   
    5.90500       5.9050       7.9990   
    5.91000       5.9100       7.9990   
    5.91500       5.9150       7.9990   
    5.92000       5.9200       7.9990   
    5.92500       5.9250       7.9990   
    5.93000       5.9300       7.9990   
    5.93500       5.9350       7.9990   
    5.94000       5.9400       7.9990   
    5.94500       5.9450       7.9990   
    5.95000       5.9500       7.9990   
    5.95500       5.9550       7.9990   
    5.96000       5.9600       7.9990   
    5.96500       5.9650       7.9990   
    5.97000       5.9700       7.9990   
    5.97500       5.9750       7.9990   
    5.98000       5.9800       7.9989   
    5.98500       5.9850       7.9989   
    5.99000       5.9900       7.9989   
    5.99500       5.9950       7.9989   
    6.00000       6.0000       7.9989   
    6.00500       6.0050       7.9989   
    6.01000       6.0100       7.9989   
    6.01500       6.0150       7.9989   
    6.02000       6.0200       7.9989   
    6.02500       6.0250       7.9989   
    6.03000       6.0300       7.9989   
    6.03500       6.0350       7.9989   
    6.04000       6.0400       7.9989   
    6.04500       6.0450       7.9989   
    6.05000       6.0500       7.9989   
    6.05500       6.0550       7.9989   
    6.06000       6.0600       7.9989   
    6.06500       6.0650       7.9989   
    6.07000       6.0700       7.9989   
    6.07500       6.0750       7.9989   
    6.08000       6.0800       7.9989   
    6.08500       6.0850       7.9989   
    6.09000       6.0900       7.9989   
    6.09500       6.0950       7.9989   
    6.10000       6.1000       7.9989   
    6.10500       6.1050       7.9988   
    6.11000       6.1100       7.9988   
    6.11500       6.1150       7.9988   
    6.12000       6.1200       7.9988   
    6.12500       6.1250       7.9988   
    6.13000       6.1300       7.9988   
    6.13500       6.1350       7.9988   
    6.14000       6.1400       7.9988   
    6.14500       6.1450       7.9988   
    6.15000       6.1500       7.9988   
    6.15500       6.1550       7.9988   
    6.16000       6.1600       7.9988   
    6.16500       6.1650       7.9988   
    6.17000       6.1700       7.9988   
    6.17500       6.1750       7.9988   
    6.18000       6.1800       7.9988   
    6.18500       6.1850       7.9988   
    6.19000       6.1900       7.9988   
    6.19500       6.1950       7.9988   
    6.20000       6.2000       7.9988   
    6.20500       6.2050       7.9988   
    6.21000       6.2100       7.9988   
    6.21500       6.2150       7.9988   
    6.22000       6.2200       7.9987   
    6.22500       6.2250       7.9987   
    6.23000       6.2300       7.9987   
    6.23500       6.2350       7.9987   
    6.24000       6.2400       7.9987   
    6.24500       6.2450       7.9987   
    6.25000       6.2500       7.9987   
    6.25500       6.2550       7.9987   
    6.26000       6.2600       7.9987   
    6.26500       6.2650       7.9987   
    6.27000       6.2700       7.9987   
    6.27500       6.2750       7.9987   
    6.28000       6.2800       7.9987   
    6.28500       6.2850       7.9987   
    6.29000       6.2900       7.9987   
    6.29500       6.2950       7.9987   
    6.30000       6.3000       7.9987   
    6.30500       6.3050       7.9987   
    6.31000       6.3100       7.9987   
    6.31500       6.3150       7.9987   
    6.32000       6.3200       7.9987   
    6.32500       6.3250       7.9986   
    6.33000       6.3300       7.9986   
    6.33500       6.3350       7.9986   
    6.34000       6.3400       7.9986   
    6.34500       6.3450       7.9986   
    6.35000       6.3500       7.9986   
    6.35500       6.3550       7.9986   
    6.36000       6.3600       7.9986   
    6.36500       6.3650       7.9986   
    6.37000       6.3700       7.9986   
    6.37500       6.3750       7.9986   
    6.38000       6.3800       7.9986   
    6.38500       6.3850       7.9986   
    6.39000       6.3900       7.9986   
    6.39500       6.3950       7.9986   
    6.40000       6.4000       7.9986   
    6.40500       6.4050       7.9986   
    6.41000       6.4100       7.9986   
    6.41500       6.4150       7.9986   
    6.42000       6.4200       7.9985   
    6.42500       6.4250       7.9985   
    6.43000       6.4300       7.9985   
    6.43500       6.4350       7.9985   
    6.44000       6.4400       7.9985   
    6.44500       6.4450       7.9985   
    6.45000       6.4500       7.9985   
    6.45500       6.4550       7.9985   
    6.46000       6.4600       7.9985   
    6.46500       6.4650       7.9985   
    6.47000       6.4700       7.9985   
    6.47500       6.4750       7.9985   
    6.48000       6.4800       7.9985   
    6.48500       6.4850       7.9985   
    6.49000       6.4900       7.9985   
    6.49500       6.4950       7.9985   
    6.50000       6.5000       7.9985   
    6.50500       6.5050       7.9984   
    6.51000       6.5100       7.9984   
    6.51500       6.5150       7.9984   
    6.52000       6.5200       7.9984   
    6.52500       6.5250       7.9984   
    6.53000       6.5300       7.9984   
    6.53500       6.5350       7.9984   
    6.54000       6.5400       7.9984   
    6.54500       6.5450       7.9984   
    6.55000       6.5500       7.9984   
    6.55500       6.5550       7.9984   
    6.56000       6.5600       7.9984   
    6.56500       6.5650       7.9984   
    6.57000       6.5700       7.9984   
    6.57500       6.5750       7.9984   
    6.58000       6.5800       7.9984   
    6.58500       6.5850       7.9984   
    6.59000       6.5900       7.9983   
    6.59500       6.5950       7.9983   
    6.60000       6.6000       7.9983   
    6.60500       6.6050       7.9983   
    6.61000       6.6100       7.9983   
    6.61500       6.6150       7.9983   
    6.62000       6.6200       7.9983   
    6.62500       6.6250       7.9983   
    6.63000       6.6300       7.9983   
    6.63500       6.6350       7.9983   
    6.64000       6.6400       7.9983   
    6.64500       6.6450       7.9983   
    6.65000       6.6500       7.9983   
    6.65500       6.6550       7.9983   
    6.66000       6.6600       7.9983   
    6.66500       6.6650       7.9982   
    6.67000       6.6700       7.9982   
    6.67500       6.6750       7.9982   
    6.68000       6.6800       7.9982   
    6.68500       6.6850       7.9982   
    6.69000       6.6900       7.9982   
    6.69500       6.6950       7.9982   
    6.70000       6.7000       7.9982   
    6.70500       6.7050       7.9982   
    6.71000       6.7100       7.9982   
    6.71500       6.7150       7.9982   
    6.72000       6.7200       7.9982   
    6.72500       6.7250       7.9982   
    6.73000       6.7300       7.9982   
    6.73500       6.7350       7.9981   
    6.74000       6.7400       7.9981   
    6.74500       6.7450       7.9981   
    6.75000       6.7500       7.9981   
    6.75500       6.7550       7.9981   
    6.76000       6.7600       7.9981   
    6.76500       6.7650       7.9981   
    6.77000       6.7700       7.9981   
    6.77500       6.7750       7.9981   
    6.78000       6.7800       7.9981   
    6.78500       6.7850       7.9981   
    6.79000       6.7900       7.9981   
    6.79500       6.7950       7.9981   
    6.80000       6.8000       7.9981   
    6.80500       6.8050       7.9980   
    6.81000       6.8100       7.9980   
    6.81500       6.8150       7.9980   
    6.82000       6.8200       7.9980   
    6.82500       6.8250       7.9980   
    6.83000       6.8300       7.9980   
    6.83500       6.8350       7.9980   
    6.84000       6.8400       7.9980   
    6.84500       6.8450       7.9980   
    6.85000       6.8500       7.9980   
    6.85500       6.8550       7.9980   
    6.86000       6.8600       7.9980   
    6.86500       6.8650       7.9980   
    6.87000       6.8700       7.9979   
    6.87500       6.8750       7.9979   
    6.88000       6.8800       7.9979   
    6.88500       6.8850       7.9979   
    6.89000       6.8900       7.9979   
    6.89500       6.8950       7.9979   
    6.90000       6.9000       7.9979   
    6.90500       6.9050       7.9979   
    6.91000       6.9100       7.9979   
    6.91500       6.9150       7.9979   
    6.92000       6.9200       7.9979   
    6.92500       6.9250       7.9979   
    6.93000       6.9300       7.9978   
    6.93500       6.9350       7.9978   
    6.94000       6.9400       7.9978   
    6.94500       6.9450       7.9978   
    6.95000       6.9500       7.9978   
    6.95500       6.9550       7.9978   
    6.96000       6.9600       7.9978   
    6.96500       6.9650       7.9978   
    6.97000       6.9700       7.9978   
    6.97500       6.9750       7.9978   
    6.98000       6.9800       7.9978   
    6.98500       6.9850       7.9977   
    6.99000       6.9900       7.9977   
    6.99500       6.9950       7.9977   
    7.00000       7.0000       7.9977   
    7.00500       7.0050       7.9977   
    7.01000       7.0100       7.9977   
    7.01500       7.0150       7.9977   
    7.02000       7.0200       7.9977   
    7.02500       7.0250       7.9977   
    7.03000       7.0300       7.9977   
    7.03500       7.0350       7.9977   
    7.04000       7.0400       7.9976   
    7.04500       7.0450       7.9976   
    7.05000       7.0500       7.9976   
    7.05500       7.0550       7.9976   
    7.06000       7.0600       7.9976   
    7.06500       7.0650       7.9976   
    7.07000       7.0700       7.9976   
    7.07500       7.0750       7.9976   
    7.08000       7.0800       7.9976   
    7.08500       7.0850       7.9976   
    7.09000       7.0900       7.9976   
    7.09500       7.0950       7.9975   
    7.10000       7.1000       7.9975   
    7.10500       7.1050       7.9975   
    7.11000       7.1100       7.9975   
    7.11500       7.1150       7.9975   
    7.12000       7.1200       7.9975   
    7.12500       7.1250       7.9975   
    7.13000       7.1300       7.9975   
    7.13500       7.1350       7.9975   
    7.14000       7.1400       7.9975   
    7.14500       7.1450       7.9974   
    7.15000       7.1500       7.9974   
    7.15500       7.1550       7.9974   
    7.16000       7.1600       7.9974   
    7.16500       7.1650       7.9974   
    7.17000       7.1700       7.9974   
    7.17500       7.1750       7.9974   
    7.18000       7.1800       7.9974   
    7.18500       7.1850       7.9974   
    7.19000       7.1900       7.9974   
    7.19500       7.1950       7.9973   
    7.20000       7.2000       7.9973   
    7.20500       7.2050       7.9973   
    7.21000       7.2100       7.9973   
    7.21500       7.2150       7.9973   
    7.22000       7.2200       7.9973   
    7.22500       7.2250       7.9973   
    7.23000       7.2300       7.9973   
    7.23500       7.2350       7.9973   
    7.24000       7.2400       7.9972   
    7.24500       7.2450       7.9972   
    7.25000       7.2500       7.9972   
    7.25500       7.2550       7.9972   
    7.26000       7.2600       7.9972   
    7.26500       7.2650       7.9972   
    7.27000       7.2700       7.9972   
    7.27500       7.2750       7.9972   
    7.28000       7.2800       7.9972   
    7.28500       7.2850       7.9971   
    7.29000       7.2900       7.9971   
    7.29500       7.2950       7.9971   
    7.30000       7.3000       7.9971   
    7.30500       7.3050       7.9971   
    7.31000       7.3100       7.9971   
    7.31500       7.3150       7.9971   
    7.32000       7.3200       7.9971   
    7.32500       7.3250       7.9970   
    7.33000       7.3300       7.9970   
    7.33500       7.3350       7.9970   
    7.34000       7.3400       7.9970   
    7.34500       7.3450       7.9970   
    7.35000       7.3500       7.9970   
    7.35500       7.3550       7.9970   
    7.36000       7.3600       7.9970   
    7.36500       7.3650       7.9970   
    7.37000       7.3700       7.9969   
    7.37500       7.3750       7.9969   
    7.38000       7.3800       7.9969   
    7.38500       7.3850       7.9969   
    7.39000       7.3900       7.9969   
    7.39500       7.3950       7.9969   
    7.40000       7.4000       7.9969   
    7.40500       7.4050       7.9969   
    7.41000       7.4100       7.9968   
    7.41500       7.4150       7.9968   
    7.42000       7.4200       7.9968   
    7.42500       7.4250       7.9968   
    7.43000       7.4300       7.9968   
    7.43500       7.4350       7.9968   
    7.44000       7.4400       7.9968   
    7.44500       7.4450       7.9967   
    7.45000       7.4500       7.9967   
    7.45500       7.4550       7.9967   
    7.46000       7.4600       7.9967   
    7.46500       7.4650       7.9967   
    7.47000       7.4700       7.9967   
    7.47500       7.4750       7.9967   
    7.48000       7.4800       7.9967   
    7.48500       7.4850       7.9966   
    7.49000       7.4900       7.9966   
    7.49500       7.4950       7.9966   
    7.50000       7.5000       7.9966   
    7.50500       7.5050       7.9966   
    7.51000       7.5100       7.9966   
    7.51500       7.5150       7.9966   
    7.52000       7.5200       7.9965   
    7.52500       7.5250       7.9965   
    7.53000       7.5300       7.9965   
    7.53500       7.5350       7.9965   
    7.54000       7.5400       7.9965   
    7.54500       7.5450       7.9965   
    7.55000       7.5500       7.9965   
    7.55500       7.5550       7.9964   
    7.56000       7.5600       7.9964   
    7.56500       7.5650       7.9964   
    7.57000       7.5700       7.9964   
    7.57500       7.5750       7.9964   
    7.58000       7.5800       7.9964   
    7.58500       7.5850       7.9964   
    7.59000       7.5900       7.9963   
    7.59500       7.5950       7.9963   
    7.60000       7.6000       7.9963   
    7.60500       7.6050       7.9963   
    7.61000       7.6100       7.9963   
    7.61500       7.6150       7.9963   
    7.62000       7.6200       7.9963   
    7.62500       7.6250       7.9962   
    7.63000       7.6300       7.9962   
    7.63500       7.6350       7.9962   
    7.64000       7.6400       7.9962   
    7.64500       7.6450       7.9962   
    7.65000       7.6500       7.9962   
    7.65500       7.6550       7.9961   
    7.66000       7.6600       7.9961   
    7.66500       7.6650       7.9961   
    7.67000       7.6700       7.9961   
    7.67500       7.6750       7.9961   
    7.68000       7.6800       7.9961   
    7.68500       7.6850       7.9960   
    7.69000       7.6900       7.9960   
    7.69500       7.6950       7.9960   
    7.70000       7.7000       7.9960   
    7.70500       7.7050       7.9960   
    7.71000       7.7100       7.9960   
    7.71500       7.7150       7.9960   
    7.72000       7.7200       7.9959   
    7.72500       7.7250       7.9959   
    7.73000       7.7300       7.9959   
    7.73500       7.7350       7.9959   
    7.74000       7.7400       7.9959   
    7.74500       7.7450       7.9959   
    7.75000       7.7500       7.9958   
    7.75500       7.7550       7.9958   
    7.76000       7.7600       7.9958   
    7.76500       7.7650       7.9958   
    7.77000       7.7700       7.9958   
    7.77500       7.7750       7.9957   
    7.78000       7.7800       7.9957   
    7.78500       7.7850       7.9957   
    7.79000       7.7900       7.9957   
    7.79500       7.7950       7.9957   
    7.80000       7.8000       7.9957   
    7.80500       7.8050       7.9956   
    7.81000       7.8100       7.9956   
    7.81500       7.8150       7.9956   
    7.82000       7.8200       7.9956   
    7.82500       7.8250       7.9956   
    7.83000       7.8300       7.9956   
    7.83500       7.8350       7.9955   
    7.84000       7.8400       7.9955   
    7.84500       7.8450       7.9955   
    7.85000       7.8500       7.9955   
    7.85500       7.8550       7.9955   
    7.86000       7.8600       7.9954   
    7.86500       7.8650       7.9954   
    7.87000       7.8700       7.9954   
    7.87500       7.8750       7.9954   
    7.88000       7.8800       7.9954   
    7.88500       7.8850       7.9953   
    7.89000       7.8900       7.9953   
    7.89500       7.8950       7.9953   
    7.90000       7.9000       7.9953   
    7.90500       7.9050       7.9953   
    7.91000       7.9100       7.9952   
    7.91500       7.9150       7.9952   
    7.92000       7.9200       7.9952   
    7.92500       7.9250       7.9952   
    7.93000       7.9300       7.9952   
    7.93500       7.9350       7.9952   
    7.94000       7.9400       7.9951   
    7.94500       7.9450       7.9951   
    7.95000       7.9500       7.9951   
    7.95500       7.9550       7.9951   
    7.96000       7.9600       7.9950   
    7.96500       7.9650       7.9950   
    7.97000       7.9700       7.9950   
    7.97500       7.9750       7.9950   
    7.98000       7.9800       7.9950   
    7.98500       7.9850       7.9949   
    7.99000       7.9900       7.9949   
    7.99500       7.9950       7.9949   
    8.00000       8.0000       7.9949   
    8.00500       8.0050       7.9949   
    8.01000       8.0100       7.9948   
    8.01500       8.0150       7.9948   
    8.02000       8.0200       7.9948   
    8.02500       8.0250       7.9948   
    8.03000       8.0300       7.9948   
    8.03500       8.0350       7.9947   
    8.04000       8.0400       7.9947   
    8.04500       8.0450       7.9947   
    8.05000       8.0500       7.9947   
    8.05500       8.0550       7.9946   
    8.06000       8.0600       7.9946   
    8.06500       8.0650       7.9946   
    8.07000       8.0700       7.9946   
    8.07500       8.0750       7.9946   
    8.08000       8.0800       7.9945   
    8.08500       8.0850       7.9945   
    8.09000       8.0900       7.9945   
    8.09500       8.0950       7.9945   
    8.10000       8.1000       7.9944   
    8.10500       8.1050       7.9944   
    8.11000       8.1100       7.9944   
    8.11500       8.1150       7.9944   
    8.12000       8.1200       7.9943   
    8.12500       8.1250       7.9943   
    8.13000       8.1300       7.9943   
    8.13500       8.1350       7.9943   
    8.14000       8.1400       7.9943   
    8.14500       8.1450       7.9942   
    8.15000       8.1500       7.9942   
    8.15500       8.1550       7.9942   
    8.16000       8.1600       7.9942   
    8.16500       8.1650       7.9941   
    8.17000       8.1700       7.9941   
    8.17500       8.1750       7.9941   
    8.18000       8.1800       7.9941   
    8.18500       8.1850       7.9940   
    8.19000       8.1900       7.9940   
    8.19500       8.1950       7.9940   
    8.20000       8.2000       7.9940   
    8.20500       8.2050       7.9939   
    8.21000       8.2100       7.9939   
    8.21500       8.2150       7.9939   
    8.22000       8.2200       7.9939   
    8.22500       8.2250       7.9938   
    8.23000       8.2300       7.9938   
    8.23500       8.2350       7.9938   
    8.24000       8.2400       7.9938   
    8.24500       8.2450       7.9937   
    8.25000       8.2500       7.9937   
    8.25500       8.2550       7.9937   
    8.26000       8.2600       7.9937   
    8.26500       8.2650       7.9936   
    8.27000       8.2700       7.9936   
    8.27500       8.2750       7.9936   
    8.28000       8.2800       7.9935   
    8.28500       8.2850       7.9935   
    8.29000       8.2900       7.9935   
    8.29500       8.2950       7.9935   
    8.30000       8.3000       7.9934   
    8.30500       8.3050       7.9934   
    8.31000       8.3100       7.9934   
    8.31500       8.3150       7.9934   
    8.32000       8.3200       7.9933   
    8.32500       8.3250       7.9933   
    8.33000       8.3300       7.9933   
    8.33500       8.3350       7.9932   
    8.34000       8.3400       7.9932   
    8.34500       8.3450       7.9932   
    8.35000       8.3500       7.9932   
    8.35500       8.3550       7.9931   
    8.36000       8.3600       7.9931   
    8.36500       8.3650       7.9931   
    8.37000       8.3700       7.9930   
    8.37500       8.3750       7.9930   
    8.38000       8.3800       7.9930   
    8.38500       8.3850       7.9930   
    8.39000       8.3900       7.9929   
    8.39500       8.3950       7.9929   
    8.40000       8.4000       7.9929   
    8.40500       8.4050       7.9928   
    8.41000       8.4100       7.9928   
    8.41500       8.4150       7.9928   
    8.42000       8.4200       7.9927   
    8.42500       8.4250       7.9927   
    8.43000       8.4300       7.9927   
    8.43500       8.4350       7.9927   
    8.44000       8.4400       7.9926   
    8.44500       8.4450       7.9926   
    8.45000       8.4500       7.9926   
    8.45500       8.4550       7.9925   
    8.46000       8.4600       7.9925   
    8.46500       8.4650       7.9925   
    8.47000       8.4700       7.9924   
    8.47500       8.4750       7.9924   
    8.48000       8.4800       7.9924   
    8.48500       8.4850       7.9923   
    8.49000       8.4900       7.9923   
    8.49500       8.4950       7.9923   
    8.50000       8.5000       7.9922   
    8.50500       8.5050       7.9922   
    8.51000       8.5100       7.9922   
    8.51500       8.5150       7.9921   
    8.52000       8.5200       7.9921   
    8.52500       8.5250       7.9921   
    8.53000       8.5300       7.9920   
    8.53500       8.5350       7.9920   
    8.54000       8.5400       7.9920   
    8.54500       8.5450       7.9919   
    8.55000       8.5500       7.9919   
    8.55500       8.5550       7.9919   
    8.56000       8.5600       7.9918   
    8.56500       8.5650       7.9918   
    8.57000       8.5700       7.9918   
    8.57500       8.5750       7.9917   
    8.58000       8.5800       7.9917   
    8.58500       8.5850       7.9917   
    8.59000       8.5900       7.9916   
    8.59500       8.5950       7.9916   
    8.60000       8.6000       7.9916   
    8.60500       8.6050       7.9915   
    8.61000       8.6100       7.9915   
    8.61500       8.6150       7.9915   
    8.62000       8.6200       7.9914   
    8.62500       8.6250       7.9914   
    8.63000       8.6300       7.9913   
    8.63500       8.6350       7.9913   
    8.64000       8.6400       7.9913   
    8.64500       8.6450       7.9912   
    8.65000       8.6500       7.9912   
    8.65500       8.6550       7.9912   
    8.66000       8.6600       7.9911   
    8.66500       8.6650       7.9911   
[...]
   27.78500      27.7850    -126.3643   
   27.79000      27.7900    -126.4380   
   27.79500      27.7950    -126.5116   
   27.80000      27.8000    -126.5853   
   27.80500      27.8050    -126.6591   
   27.81000      27.8100    -126.7328   
   27.81500      27.8150    -126.8065   
   27.82000      27.8200    -126.8802   
   27.82500      27.8250    -126.9539   
   27.83000      27.8300    -127.0277   
   27.83500      27.8350    -127.1014   
   27.84000      27.8400    -127.1751   
   27.84500      27.8450    -127.2489   
   27.85000      27.8500    -127.3226   
   27.85500      27.8550    -127.3964   
   27.86000      27.8600    -127.4701   
   27.86500      27.8650    -127.5439   
   27.87000      27.8700    -127.6177   
   27.87500      27.8750    -127.6915   
   27.88000      27.8800    -127.7652   
   27.88500      27.8850    -127.8390   
   27.89000      27.8900    -127.9128   
   27.89500      27.8950    -127.9866   
   27.90000      27.9000    -128.0604   
   27.90500      27.9050    -128.1342   
   27.91000      27.9100    -128.2080   
   27.91500      27.9150    -128.2818   
   27.92000      27.9200    -128.3557   
   27.92500      27.9250    -128.4295   
   27.93000      27.9300    -128.5033   
   27.93500      27.9350    -128.5772   
   27.94000      27.9400    -128.6510   
   27.94500      27.9450    -128.7248   
   27.95000      27.9500    -128.7987   
   27.95500      27.9550    -128.8726   
   27.96000      27.9600    -128.9464   
   27.96500      27.9650    -129.0203   
   27.97000      27.9700    -129.0942   
   27.97500      27.9750    -129.1680   
   27.98000      27.9800    -129.2419   
   27.98500      27.9850    -129.3158   
   27.99000      27.9900    -129.3897   
   27.99500      27.9950    -129.4636   
   28.00000      28.0000    -129.5375   
   28.00500      28.0050    -129.6114   
   28.01000      28.0100    -129.6853   
   28.01500      28.0150    -129.7592   
   28.02000      28.0200    -129.8331   
   28.02500      28.0250    -129.9071   
   28.03000      28.0300    -129.9810   
   28.03500      28.0350    -130.0549   
   28.04000      28.0400    -130.1289   
   28.04500      28.0450    -130.2028   
   28.05000      28.0500    -130.2768   
   28.05500      28.0550    -130.3507   
   28.06000      28.0600    -130.4247   
   28.06500      28.0650    -130.4986   
   28.07000      28.0700    -130.5726   
   28.07500      28.0750    -130.6466   
   28.08000      28.0800    -130.7206   
   28.08500      28.0850    -130.7945   
   28.09000      28.0900    -130.8685   
   28.09500      28.0950    -130.9425   
   28.10000      28.1000    -131.0165   
   28.10500      28.1050    -131.0905   
   28.11000      28.1100    -131.1645   
   28.11500      28.1150    -131.2386   
   28.12000      28.1200    -131.3126   
   28.12500      28.1250    -131.3866   
   28.13000      28.1300    -131.4606   
   28.13500      28.1350    -131.5347   
   28.14000      28.1400    -131.6087   
   28.14500      28.1450    -131.6827   
   28.15000      28.1500    -131.7568   
   28.15500      28.1550    -131.8308   
   28.16000      28.1600    -131.9049   
   28.16500      28.1650    -131.9790   
   28.17000      28.1700    -132.0530   
   28.17500      28.1750    -132.1271   
   28.18000      28.1800    -132.2012   
   28.18500      28.1850    -132.2752   
   28.19000      28.1900    -132.3493   
   28.19500      28.1950    -132.4234   
   28.20000      28.2000    -132.4975   
   28.20500      28.2050    -132.5716   
   28.21000      28.2100    -132.6457   
   28.21500      28.2150    -132.7198   
   28.22000      28.2200    -132.7939   
   28.22500      28.2250    -132.8681   
   28.23000      28.2300    -132.9422   
   28.23500      28.2350    -133.0163   
   28.24000      28.2400    -133.0904   
   28.24500      28.2450    -133.1646   
   28.25000      28.2500    -133.2387   
   28.25500      28.2550    -133.3129   
   28.26000      28.2600    -133.3870   
   28.26500      28.2650    -133.4612   
   28.27000      28.2700    -133.5353   
   28.27500      28.2750    -133.6095   
   28.28000      28.2800    -133.6837   
   28.28500      28.2850    -133.7579   
   28.29000      28.2900    -133.8320   
   28.29500      28.2950    -133.9062   
   28.30000      28.3000    -133.9804   
   28.30500      28.3050    -134.0546   
   28.31000      28.3100    -134.1288   
   28.31500      28.3150    -134.2030   
   28.32000      28.3200    -134.2772   
   28.32500      28.3250    -134.3514   
   28.33000      28.3300    -134.4256   
   28.33500      28.3350    -134.4999   
   28.34000      28.3400    -134.5741   
   28.34500      28.3450    -134.6483   
   28.35000      28.3500    -134.7226   
   28.35500      28.3550    -134.7968   
   28.36000      28.3600    -134.8710   
   28.36500      28.3650    -134.9453   
   28.37000      28.3700    -135.0196   
   28.37500      28.3750    -135.0938   
   28.38000      28.3800    -135.1681   
   28.38500      28.3850    -135.2423   
   28.39000      28.3900    -135.3166   
   28.39500      28.3950    -135.3909   
   28.40000      28.4000    -135.4652   
   28.40500      28.4050    -135.5395   
   28.41000      28.4100    -135.6138   
   28.41500      28.4150    -135.6881   
   28.42000      28.4200    -135.7624   
   28.42500      28.4250    -135.8367   
   28.43000      28.4300    -135.9110   
   28.43500      28.4350    -135.9853   
   28.44000      28.4400    -136.0596   
   28.44500      28.4450    -136.1339   
   28.45000      28.4500    -136.2083   
   28.45500      28.4550    -136.2826   
   28.46000      28.4600    -136.3569   
   28.46500      28.4650    -136.4313   
   28.47000      28.4700    -136.5056   
   28.47500      28.4750    -136.5800   
   28.48000      28.4800    -136.6543   
   28.48500      28.4850    -136.7287   
   28.49000      28.4900    -136.8030   
   28.49500      28.4950    -136.8774   
   28.50000      28.5000    -136.9518   
   28.50500      28.5050    -137.0262   
   28.51000      28.5100    -137.1005   
   28.51500      28.5150    -137.1749   
   28.52000      28.5200    -137.2493   
   28.52500      28.5250    -137.3237   
   28.53000      28.5300    -137.3981   
   28.53500      28.5350    -137.4725   
   28.54000      28.5400    -137.5469   
   28.54500      28.5450    -137.6214   
   28.55000      28.5500    -137.6958   
   28.55500      28.5550    -137.7702   
   28.56000      28.5600    -137.8446   
   28.56500      28.5650    -137.9191   
   28.57000      28.5700    -137.9935   
   28.57500      28.5750    -138.0679   
   28.58000      28.5800    -138.1424   
   28.58500      28.5850    -138.2168   
   28.59000      28.5900    -138.2913   
   28.59500      28.5950    -138.3657   
   28.60000      28.6000    -138.4402   
   28.60500      28.6050    -138.5147   
   28.61000      28.6100    -138.5891   
   28.61500      28.6150    -138.6636   
   28.62000      28.6200    -138.7381   
   28.62500      28.6250    -138.8126   
   28.63000      28.6300    -138.8871   
   28.63500      28.6350    -138.9616   
   28.64000      28.6400    -139.0361   
   28.64500      28.6450    -139.1106   
   28.65000      28.6500    -139.1851   
   28.65500      28.6550    -139.2596   
   28.66000      28.6600    -139.3341   
   28.66500      28.6650    -139.4086   
   28.67000      28.6700    -139.4832   
   28.67500      28.6750    -139.5577   
   28.68000      28.6800    -139.6322   
   28.68500      28.6850    -139.7068   
   28.69000      28.6900    -139.7813   
   28.69500      28.6950    -139.8559   
   28.70000      28.7000    -139.9304   
   28.70500      28.7050    -140.0050   
   28.71000      28.7100    -140.0795   
   28.71500      28.7150    -140.1541   
   28.72000      28.7200    -140.2287   
   28.72500      28.7250    -140.3032   
   28.73000      28.7300    -140.3778   
   28.73500      28.7350    -140.4524   
   28.74000      28.7400    -140.5270   
   28.74500      28.7450    -140.6016   
   28.75000      28.7500    -140.6762   
   28.75500      28.7550    -140.7508   
   28.76000      28.7600    -140.8254   
   28.76500      28.7650    -140.9000   
   28.77000      28.7700    -140.9746   
   28.77500      28.7750    -141.0492   
   28.78000      28.7800    -141.1238   
   28.78500      28.7850    -141.1985   
   28.79000      28.7900    -141.2731   
   28.79500      28.7950    -141.3477   
   28.80000      28.8000    -141.4224   
   28.80500      28.8050    -141.4970   
   28.81000      28.8100    -141.5716   
   28.81500      28.8150    -141.6463   
   28.82000      28.8200    -141.7210   
   28.82500      28.8250    -141.7956   
   28.83000      28.8300    -141.8703   
   28.83500      28.8350    -141.9450   
   28.84000      28.8400    -142.0196   
   28.84500      28.8450    -142.0943   
   28.85000      28.8500    -142.1690   
   28.85500      28.8550    -142.2437   
   28.86000      28.8600    -142.3184   
   28.86500      28.8650    -142.3931   
   28.87000      28.8700    -142.4678   
   28.87500      28.8750    -142.5425   
   28.88000      28.8800    -142.6172   
   28.88500      28.8850    -142.6919   
   28.89000      28.8900    -142.7666   
   28.89500      28.8950    -142.8413   
   28.90000      28.9000    -142.9160   
   28.90500      28.9050    -142.9908   
   28.91000      28.9100    -143.0655   
   28.91500      28.9150    -143.1402   
   28.92000      28.9200    -143.2150   
   28.92500      28.9250    -143.2897   
   28.93000      28.9300    -143.3645   
   28.93500      28.9350    -143.4392   
   28.94000      28.9400    -143.5140   
   28.94500      28.9450    -143.5887   
   28.95000      28.9500    -143.6635   
   28.95500      28.9550    -143.7383   
   28.96000      28.9600    -143.8131   
   28.96500      28.9650    -143.8878   
   28.97000      28.9700    -143.9626   
   28.97500      28.9750    -144.0374   
   28.98000      28.9800    -144.1122   
   28.98500      28.9850    -144.1870   
   28.99000      28.9900    -144.2618   
   28.99500      28.9950    -144.3366   
   29.00000      29.0000    -144.4114   
   29.00500      29.0050    -144.4862   
   29.01000      29.0100    -144.5610   
   29.01500      29.0150    -144.6359   
   29.02000      29.0200    -144.7107   
   29.02500      29.0250    -144.7855   
   29.03000      29.0300    -144.8603   
   29.03500      29.0350    -144.9352   
   29.04000      29.0400    -145.0100   
   29.04500      29.0450    -145.0849   
   29.05000      29.0500    -145.1597   
   29.05500      29.0550    -145.2346   
   29.06000      29.0600    -145.3094   
   29.06500      29.0650    -145.3843   
   29.07000      29.0700    -145.4592   
   29.07500      29.0750    -145.5340   
   29.08000      29.0800    -145.6089   
   29.08500      29.0850    -145.6838   
   29.09000      29.0900    -145.7587   
   29.09500      29.0950    -145.8335   
   29.10000      29.1000    -145.9084   
   29.10500      29.1050    -145.9833   
   29.11000      29.1100    -146.0582   
   29.11500      29.1150    -146.1331   
   29.12000      29.1200    -146.2080   
   29.12500      29.1250    -146.2830   
   29.13000      29.1300    -146.3579   
   29.13500      29.1350    -146.4328   
   29.14000      29.1400    -146.5077   
   29.14500      29.1450    -146.5826   
   29.15000      29.1500    -146.6576   
   29.15500      29.1550    -146.7325   
   29.16000      29.1600    -146.8075   
   29.16500      29.1650    -146.8824   
   29.17000      29.1700    -146.9573   
   29.17500      29.1750    -147.0323   
   29.18000      29.1800    -147.1073   
   29.18500      29.1850    -147.1822   
   29.19000      29.1900    -147.2572   
   29.19500      29.1950    -147.3321   
   29.20000      29.2000    -147.4071   
   29.20500      29.2050    -147.4821   
   29.21000      29.2100    -147.5571   
   29.21500      29.2150    -147.6321   
   29.22000      29.2200    -147.7070   
   29.22500      29.2250    -147.7820   
   29.23000      29.2300    -147.8570   
   29.23500      29.2350    -147.9320   
   29.24000      29.2400    -148.0070   
   29.24500      29.2450    -148.0821   
   29.25000      29.2500    -148.1571   
   29.25500      29.2550    -148.2321   
   29.26000      29.2600    -148.3071   
   29.26500      29.2650    -148.3821   
   29.27000      29.2700    -148.4572   
   29.27500      29.2750    -148.5322   
   29.28000      29.2800    -148.6072   
   29.28500      29.2850    -148.6823   
   29.29000      29.2900    -148.7573   
   29.29500      29.2950    -148.8324   
   29.30000      29.3000    -148.9074   
   29.30500      29.3050    -148.9825   
   29.31000      29.3100    -149.0575   
   29.31500      29.3150    -149.1326   
   29.32000      29.3200    -149.2077   
   29.32500      29.3250    -149.2827   
   29.33000      29.3300    -149.3578   
   29.33500      29.3350    -149.4329   
   29.34000      29.3400    -149.5080   
   29.34500      29.3450    -149.5831   
   29.35000      29.3500    -149.6582   
   29.35500      29.3550    -149.7332   
   29.36000      29.3600    -149.8083   
   29.36500      29.3650    -149.8835   
   29.37000      29.3700    -149.9586   
   29.37500      29.3750    -150.0337   
   29.38000      29.3800    -150.1088   
   29.38500      29.3850    -150.1839   
   29.39000      29.3900    -150.2590   
   29.39500      29.3950    -150.3342   
   29.40000      29.4000    -150.4093   
   29.40500      29.4050    -150.4844   
   29.41000      29.4100    -150.5596   
   29.41500      29.4150    -150.6347   
   29.42000      29.4200    -150.7099   
   29.42500      29.4250    -150.7850   
   29.43000      29.4300    -150.8602   
   29.43500      29.4350    -150.9353   
   29.44000      29.4400    -151.0105   
   29.44500      29.4450    -151.0856   
   29.45000      29.4500    -151.1608   
   29.45500      29.4550    -151.2360   
   29.46000      29.4600    -151.3112   
   29.46500      29.4650    -151.3863   
   29.47000      29.4700    -151.4615   
   29.47500      29.4750    -151.5367   
   29.48000      29.4800    -151.6119   
   29.48500      29.4850    -151.6871   
   29.49000      29.4900    -151.7623   
   29.49500      29.4950    -151.8375   
   29.50000      29.5000    -151.9127   
   29.50500      29.5050    -151.9879   
   29.51000      29.5100    -152.0632   
   29.51500      29.5150    -152.1384   
   29.52000      29.5200    -152.2136   
   29.52500      29.5250    -152.2888   
   29.53000      29.5300    -152.3641   
   29.53500      29.5350    -152.4393   
   29.54000      29.5400    -152.5145   
   29.54500      29.5450    -152.5898   
   29.55000      29.5500    -152.6650   
   29.55500      29.5550    -152.7403   
   29.56000      29.5600    -152.8155   
   29.56500      29.5650    -152.8908   
   29.57000      29.5700    -152.9661   
   29.57500      29.5750    -153.0413   
   29.58000      29.5800    -153.1166   
   29.58500      29.5850    -153.1919   
   29.59000      29.5900    -153.2671   
   29.59500      29.5950    -153.3424   
   29.60000      29.6000    -153.4177   
   29.60500      29.6050    -153.4930   
   29.61000      29.6100    -153.5683   
   29.61500      29.6150    -153.6436   
   29.62000      29.6200    -153.7189   
   29.62500      29.6250    -153.7942   
   29.63000      29.6300    -153.8695   
   29.63500      29.6350    -153.9448   
   29.64000      29.6400    -154.0201   
   29.64500      29.6450    -154.0955   
   29.65000      29.6500    -154.1708   
   29.65500      29.6550    -154.2461   
   29.66000      29.6600    -154.3214   
   29.66500      29.6650    -154.3968   
   29.67000      29.6700    -154.4721   
   29.67500      29.6750    -154.5474   
   29.68000      29.6800    -154.6228   
   29.68500      29.6850    -154.6981   
   29.69000      29.6900    -154.7735   
   29.69500      29.6950    -154.8488   
   29.70000      29.7000    -154.9242   
   29.70500      29.7050    -154.9996   
   29.71000      29.7100    -155.0749   
   29.71500      29.7150    -155.1503   
   29.72000      29.7200    -155.2257   
   29.72500      29.7250    -155.3011   
   29.73000      29.7300    -155.3765   
   29.73500      29.7350    -155.4518   
   29.74000      29.7400    -155.5272   
   29.74500      29.7450    -155.6026   
   29.75000      29.7500    -155.6780   
   29.75500      29.7550    -155.7534   
   29.76000      29.7600    -155.8288   
   29.76500      29.7650    -155.9042   
   29.77000      29.7700    -155.9796   
   29.77500      29.7750    -156.0551   
   29.78000      29.7800    -156.1305   
   29.78500      29.7850    -156.2059   
   29.79000      29.7900    -156.2813   
   29.79500      29.7950    -156.3568   
   29.80000      29.8000    -156.4322   
   29.80500      29.8050    -156.5076   
   29.81000      29.8100    -156.5831   
   29.81500      29.8150    -156.6585   
   29.82000      29.8200    -156.7340   
   29.82500      29.8250    -156.8094   
   29.83000      29.8300    -156.8849   
   29.83500      29.8350    -156.9603   
   29.84000      29.8400    -157.0358   
   29.84500      29.8450    -157.1113   
   29.85000      29.8500    -157.1867   
   29.85500      29.8550    -157.2622   
   29.86000      29.8600    -157.3377   
   29.86500      29.8650    -157.4132   
   29.87000      29.8700    -157.4887   
   29.87500      29.8750    -157.5642   
   29.88000      29.8800    -157.6396   
   29.88500      29.8850    -157.7151   
   29.89000      29.8900    -157.7906   
   29.89500      29.8950    -157.8661   
   29.90000      29.9000    -157.9417   
   29.90500      29.9050    -158.0172   
   29.91000      29.9100    -158.0927   
   29.91500      29.9150    -158.1682   
   29.92000      29.9200    -158.2437   
   29.92500      29.9250    -158.3192   
   29.93000      29.9300    -158.3948   
   29.93500      29.9350    -158.4703   
   29.94000      29.9400    -158.5458   
   29.94500      29.9450    -158.6214   
   29.95000      29.9500    -158.6969   
   29.95500      29.9550    -158.7725   
   29.96000      29.9600    -158.8480   
   29.96500      29.9650    -158.9236   
   29.97000      29.9700    -158.9991   
   29.97500      29.9750    -159.0747   
   29.98000      29.9800    -159.1503   
   29.98500      29.9850    -159.2258   
   29.99000      29.9900    -159.3014   
   29.99500      29.9950    -159.3770   
   30.00000      30.0000    -159.4526   
y

          ***** job concluded
1****** HSPICE -- C-2009.03-SP1 32-BIT (May 25 2009) winnt ******               
 ******  
 ** super cell 1 max current

  ******  job statistics summary tnom=  25.000 temp=  25.000 *****

  ******  HSPICE Threads Information  ******
  Command Line Threads Count                  :     1
  Available CPU Count                         :     8
  Actual Model Evaluation(Load) Threads Count :     1
  Actual Solver Threads Count                 :     1


  ******  Circuit Statistics  ******
  # nodes       =       5 # elements   =      11
  # resistors   =       4 # capacitors =       0 # inductors   =       0
  # mutual_inds =       0 # vccs       =       0 # vcvs        =       0
  # cccs        =       0 # ccvs       =       0 # volt_srcs   =       1
  # curr_srcs   =       2 # diodes     =       4 # bjts        =       0
  # jfets       =       0 # mosfets    =       0 # U elements  =       0
  # T elements  =       0 # W elements =       0 # B elements  =       0
  # S elements  =       0 # P elements =       0 # va device   =       0


  ******  Runtime Statistics (seconds)  ******

  analysis           time    # points   tot. iter  conv.iter
  op point           0.00           1           0
  dc sweep           0.20        6001       12023
  readin             0.07
  errchk             0.02
  setup              0.03
  output             0.02


           total memory used          256  kbytes
           total cpu time            0.36 seconds
           total elapsed time        0.39 seconds
           job started at     13:19:12 06/24/2015
           job ended   at     13:19:12 06/24/2015


 Init: hspice initialization file: C:\synopsys\Hspice_C-2009.03-SP1\hspice.ini
  lic: Release hspice token(s) 
