 ****** HSPICE -- C-2009.03-SP1 32-BIT (May 25 2009) winnt ******               
  Copyright (C) 2009 Synopsys, Inc. All Rights Reserved.                        
  Unpublished-rights reserved under US copyright laws.
  This program is protected by law and is subject to the 
  terms and conditions of the license agreement from Synopsys.
  Use of this program is your acceptance to be bound by the 
  license agreement. HSPICE is the trademark of Synopsys, Inc.
  Input File: C:\Users\Administrator\Desktop\MultiLevel\tcModel.sp              
  lic:  
  lic: FLEXlm: v8.5b 
  lic: USER:   Administrator        HOSTNAME: WIN-HBGPFB5Q4D3 
  lic: HOSTID: "002268384615 005056c00001 005056c00008" PID:      2372 
  lic: Using FLEXlm license file: 
  lic: C:\synopsys\hspice_2009-03.lic 
  lic: Checkout 1 hspice 
  lic: License/Maintenance for hspice will expire on 31-dec-2020/2007.9 
  lic: NODE LOCKED license on hostid "002268384615 005056c00001 005056c00008" 
  lic:   
 Init: read install configuration file: C:\synopsys\Hspice_C-2009.03-SP1\meta.cfg
 Init: hspice initialization file: C:\synopsys\Hspice_C-2009.03-SP1\hspice.ini




1****** HSPICE -- C-2009.03-SP1 32-BIT (May 25 2009) winnt ******               
 ******  
 ** super cell 1 max current

  ******  diode model parameters tnom=  25.000 temp=  25.000 *****
 ********************************************************
 *** common model parameters model name:   0:diode1  ****
 ********************************************************

     names  values   units     names  values   units     names  values   units
     -----  ------   -----     -----  ------   -----     -----  ------   -----

   1*** dc breakdown parameters ***
       vb=   0.    volts        ibv=   1.00m amps   

   2*** parasitic resistance parameters ***
       rs=   0.    ohms   

   3*** capacitance parameters ***
       fc= 500.00m              fcs= 500.00m                m= 500.00m        
     mjsw= 330.00m               pb= 800.00m volts        php= 800.00m volts  
       tt=   0.    secs         cjo=   0.    f/area       cjp=   0.    f/pj   

   4*** temperature effect parameters ***
     tlev=   0.               tlevc=   0.                 tcv=   0.    v/deg k
      trs=   0.    /deg         cta=   0.    /deg         ctp=   0.    /deg   
      xti=   3.00            xtitun=   3.00               keg=   1.00         
       eg=   1.11  ev          gap1= 702.00u  ev/deg     gap2=   1.11k  deg   
     ttt1=   0.    /deg        ttt2=   0.    /deg2        tm1=   0.    /deg   
      tm2=   0.    /deg2        tpb=   0.    v/deg k     tphp=   0.    v/deg k
     tref=  25.00   deg c 

   5*** noise parameters ***
       kf=   0.                  af=   1.00         

   ***  level   1  model parameters  ***

    level=   1.00                is=   1.88u amps         jsw=   0.    amps   
        n=  56.40               nbv=  56.40                ik=   0.    amp    
     area=   1.00                pj=   0.                 ikr=   0.    amp    
    expli=   0.    amps      explir=   0.    amps        jtun=   0.    amps   
   jtunsw=   0.    amps        ntun=  30.00         
  
 ********************************************************
 *** common model parameters model name:   0:diode2  ****
 ********************************************************

     names  values   units     names  values   units     names  values   units
     -----  ------   -----     -----  ------   -----     -----  ------   -----

   1*** dc breakdown parameters ***
       vb=   0.    volts        ibv=   1.00m amps   

   2*** parasitic resistance parameters ***
       rs=   0.    ohms   

   3*** capacitance parameters ***
       fc= 500.00m              fcs= 500.00m                m= 500.00m        
     mjsw= 330.00m               pb= 800.00m volts        php= 800.00m volts  
       tt=   0.    secs         cjo=   0.    f/area       cjp=   0.    f/pj   

   4*** temperature effect parameters ***
     tlev=   0.               tlevc=   0.                 tcv=   0.    v/deg k
      trs=   0.    /deg         cta=   0.    /deg         ctp=   0.    /deg   
      xti=   3.00            xtitun=   3.00               keg=   1.00         
       eg=   1.11  ev          gap1= 702.00u  ev/deg     gap2=   1.11k  deg   
     ttt1=   0.    /deg        ttt2=   0.    /deg2        tm1=   0.    /deg   
      tm2=   0.    /deg2        tpb=   0.    v/deg k     tphp=   0.    v/deg k
     tref=  25.00   deg c 

   5*** noise parameters ***
       kf=   0.                  af=   1.00         

   ***  level   1  model parameters  ***

    level=   1.00                is=  18.80u amps         jsw=   0.    amps   
        n=   1.88               nbv=   1.88                ik=   0.    amp    
     area=   1.00                pj=   0.                 ikr=   0.    amp    
    expli=   0.    amps      explir=   0.    amps        jtun=   0.    amps   
   jtunsw=   0.    amps        ntun=  30.00         
  
 ********************************************************
 *** common model parameters model name:   0:diode3  ****
 ********************************************************

     names  values   units     names  values   units     names  values   units
     -----  ------   -----     -----  ------   -----     -----  ------   -----

   1*** dc breakdown parameters ***
       vb=   0.    volts        ibv=   1.00m amps   

   2*** parasitic resistance parameters ***
       rs=   0.    ohms   

   3*** capacitance parameters ***
       fc= 500.00m              fcs= 500.00m                m= 500.00m        
     mjsw= 330.00m               pb= 800.00m volts        php= 800.00m volts  
       tt=   0.    secs         cjo=   0.    f/area       cjp=   0.    f/pj   

   4*** temperature effect parameters ***
     tlev=   0.               tlevc=   0.                 tcv=   0.    v/deg k
      trs=   0.    /deg         cta=   0.    /deg         ctp=   0.    /deg   
      xti=   3.00            xtitun=   3.00               keg=   1.00         
       eg=   1.11  ev          gap1= 702.00u  ev/deg     gap2=   1.11k  deg   
     ttt1=   0.    /deg        ttt2=   0.    /deg2        tm1=   0.    /deg   
      tm2=   0.    /deg2        tpb=   0.    v/deg k     tphp=   0.    v/deg k
     tref=  25.00   deg c 

   5*** noise parameters ***
       kf=   0.                  af=   1.00         

   ***  level   1  model parameters  ***

    level=   1.00                is= 120.00n amps         jsw=   0.    amps   
        n=   3.60               nbv=   3.60                ik=   0.    amp    
     area=   1.00                pj=   0.                 ikr=   0.    amp    
    expli=   0.    amps      explir=   0.    amps        jtun=   0.    amps   
   jtunsw=   0.    amps        ntun=  30.00         
  
 ********************************************************
 *** common model parameters model name:   0:diode4  ****
 ********************************************************

     names  values   units     names  values   units     names  values   units
     -----  ------   -----     -----  ------   -----     -----  ------   -----

   1*** dc breakdown parameters ***
       vb=   0.    volts        ibv=   1.00m amps   

   2*** parasitic resistance parameters ***
       rs=   0.    ohms   

   3*** capacitance parameters ***
       fc= 500.00m              fcs= 500.00m                m= 500.00m        
     mjsw= 330.00m               pb= 800.00m volts        php= 800.00m volts  
       tt=   0.    secs         cjo=   0.    f/area       cjp=   0.    f/pj   

   4*** temperature effect parameters ***
     tlev=   0.               tlevc=   0.                 tcv=   0.    v/deg k
      trs=   0.    /deg         cta=   0.    /deg         ctp=   0.    /deg   
      xti=   3.00            xtitun=   3.00               keg=   1.00         
       eg=   1.11  ev          gap1= 702.00u  ev/deg     gap2=   1.11k  deg   
     ttt1=   0.    /deg        ttt2=   0.    /deg2        tm1=   0.    /deg   
      tm2=   0.    /deg2        tpb=   0.    v/deg k     tphp=   0.    v/deg k
     tref=  25.00   deg c 

   5*** noise parameters ***
       kf=   0.                  af=   1.00         

   ***  level   1  model parameters  ***

    level=   1.00                is=   1.20u amps         jsw=   0.    amps   
        n= 120.00m              nbv= 120.00m               ik=   0.    amp    
     area=   1.00                pj=   0.                 ikr=   0.    amp    
    expli=   0.    amps      explir=   0.    amps        jtun=   0.    amps   
   jtunsw=   0.    amps        ntun=  30.00         
  
 
      
 *****************************************************************
 ******  option summary
 ******
 runlvl  = 3         bypass  = 2         
 ******  
 ** super cell 1 max current

  ******  dc transfer curves tnom=  25.000 temp=  25.000 *****
x

        volt    voltage      current    
                    out          vds    
    0.            0.           4.0000   
    5.00000m      5.0000m      4.0000   
   10.00000m     10.0000m      4.0000   
   15.00000m     15.0000m      4.0000   
   20.00000m     20.0000m      4.0000   
   25.00000m     25.0000m      4.0000   
   30.00000m     30.0000m      4.0000   
   35.00000m     35.0000m      4.0000   
   40.00000m     40.0000m      4.0000   
   45.00000m     45.0000m      4.0000   
   50.00000m     50.0000m      4.0000   
   55.00000m     55.0000m      4.0000   
   60.00000m     60.0000m      4.0000   
   65.00000m     65.0000m      4.0000   
   70.00000m     70.0000m      4.0000   
   75.00000m     75.0000m      4.0000   
   80.00000m     80.0000m      4.0000   
   85.00000m     85.0000m      4.0000   
   90.00000m     90.0000m      4.0000   
   95.00000m     95.0000m      4.0000   
  100.00000m    100.0000m      4.0000   
  105.00000m    105.0000m      4.0000   
  110.00000m    110.0000m      4.0000   
  115.00000m    115.0000m      4.0000   
  120.00000m    120.0000m      4.0000   
  125.00000m    125.0000m      4.0000   
  130.00000m    130.0000m      4.0000   
  135.00000m    135.0000m      4.0000   
  140.00000m    140.0000m      4.0000   
  145.00000m    145.0000m      4.0000   
  150.00000m    150.0000m      4.0000   
  155.00000m    155.0000m      4.0000   
  160.00000m    160.0000m      4.0000   
  165.00000m    165.0000m      4.0000   
  170.00000m    170.0000m      4.0000   
  175.00000m    175.0000m      4.0000   
  180.00000m    180.0000m      4.0000   
  185.00000m    185.0000m      4.0000   
  190.00000m    190.0000m      4.0000   
  195.00000m    195.0000m      4.0000   
  200.00000m    200.0000m      4.0000   
  205.00000m    205.0000m      4.0000   
  210.00000m    210.0000m      4.0000   
  215.00000m    215.0000m      4.0000   
  220.00000m    220.0000m      4.0000   
  225.00000m    225.0000m      4.0000   
  230.00000m    230.0000m      4.0000   
  235.00000m    235.0000m      4.0000   
  240.00000m    240.0000m      4.0000   
  245.00000m    245.0000m      4.0000   
  250.00000m    250.0000m      4.0000   
  255.00000m    255.0000m      4.0000   
  260.00000m    260.0000m      4.0000   
  265.00000m    265.0000m      4.0000   
  270.00000m    270.0000m      4.0000   
  275.00000m    275.0000m      4.0000   
  280.00000m    280.0000m      4.0000   
  285.00000m    285.0000m      4.0000   
  290.00000m    290.0000m      4.0000   
  295.00000m    295.0000m      4.0000   
  300.00000m    300.0000m      4.0000   
  305.00000m    305.0000m      4.0000   
  310.00000m    310.0000m      4.0000   
  315.00000m    315.0000m      4.0000   
  320.00000m    320.0000m      4.0000   
  325.00000m    325.0000m      4.0000   
  330.00000m    330.0000m      4.0000   
  335.00000m    335.0000m      4.0000   
  340.00000m    340.0000m      4.0000   
  345.00000m    345.0000m      4.0000   
  350.00000m    350.0000m      4.0000   
  355.00000m    355.0000m      4.0000   
  360.00000m    360.0000m      4.0000   
  365.00000m    365.0000m      4.0000   
  370.00000m    370.0000m      4.0000   
  375.00000m    375.0000m      4.0000   
  380.00000m    380.0000m      4.0000   
  385.00000m    385.0000m      4.0000   
  390.00000m    390.0000m      4.0000   
  395.00000m    395.0000m      4.0000   
  400.00000m    400.0000m      4.0000   
  405.00000m    405.0000m      4.0000   
  410.00000m    410.0000m      4.0000   
  415.00000m    415.0000m      4.0000   
  420.00000m    420.0000m      4.0000   
  425.00000m    425.0000m      4.0000   
  430.00000m    430.0000m      4.0000   
  435.00000m    435.0000m      4.0000   
  440.00000m    440.0000m      4.0000   
  445.00000m    445.0000m      4.0000   
  450.00000m    450.0000m      4.0000   
  455.00000m    455.0000m      4.0000   
  460.00000m    460.0000m      4.0000   
  465.00000m    465.0000m      4.0000   
  470.00000m    470.0000m      4.0000   
  475.00000m    475.0000m      4.0000   
  480.00000m    480.0000m      4.0000   
  485.00000m    485.0000m      4.0000   
  490.00000m    490.0000m      4.0000   
  495.00000m    495.0000m      4.0000   
  500.00000m    500.0000m      4.0000   
  505.00000m    505.0000m      4.0000   
  510.00000m    510.0000m      4.0000   
  515.00000m    515.0000m      4.0000   
  520.00000m    520.0000m      4.0000   
  525.00000m    525.0000m      4.0000   
  530.00000m    530.0000m      4.0000   
  535.00000m    535.0000m      4.0000   
  540.00000m    540.0000m      4.0000   
  545.00000m    545.0000m      4.0000   
  550.00000m    550.0000m      4.0000   
  555.00000m    555.0000m      4.0000   
  560.00000m    560.0000m      4.0000   
  565.00000m    565.0000m      4.0000   
  570.00000m    570.0000m      4.0000   
  575.00000m    575.0000m      4.0000   
  580.00000m    580.0000m      4.0000   
  585.00000m    585.0000m      4.0000   
  590.00000m    590.0000m      4.0000   
  595.00000m    595.0000m      4.0000   
  600.00000m    600.0000m      4.0000   
  605.00000m    605.0000m      4.0000   
  610.00000m    610.0000m      4.0000   
  615.00000m    615.0000m      4.0000   
  620.00000m    620.0000m      4.0000   
  625.00000m    625.0000m      4.0000   
  630.00000m    630.0000m      4.0000   
  635.00000m    635.0000m      4.0000   
  640.00000m    640.0000m      4.0000   
  645.00000m    645.0000m      4.0000   
  650.00000m    650.0000m      4.0000   
  655.00000m    655.0000m      4.0000   
  660.00000m    660.0000m      4.0000   
  665.00000m    665.0000m      4.0000   
  670.00000m    670.0000m      4.0000   
  675.00000m    675.0000m      4.0000   
  680.00000m    680.0000m      4.0000   
  685.00000m    685.0000m      4.0000   
  690.00000m    690.0000m      4.0000   
  695.00000m    695.0000m      4.0000   
  700.00000m    700.0000m      4.0000   
  705.00000m    705.0000m      4.0000   
  710.00000m    710.0000m      4.0000   
  715.00000m    715.0000m      4.0000   
  720.00000m    720.0000m      4.0000   
  725.00000m    725.0000m      4.0000   
  730.00000m    730.0000m      4.0000   
  735.00000m    735.0000m      4.0000   
  740.00000m    740.0000m      4.0000   
  745.00000m    745.0000m      4.0000   
  750.00000m    750.0000m      4.0000   
  755.00000m    755.0000m      4.0000   
  760.00000m    760.0000m      4.0000   
  765.00000m    765.0000m      4.0000   
  770.00000m    770.0000m      4.0000   
  775.00000m    775.0000m      4.0000   
  780.00000m    780.0000m      4.0000   
  785.00000m    785.0000m      4.0000   
  790.00000m    790.0000m      4.0000   
  795.00000m    795.0000m      4.0000   
  800.00000m    800.0000m      4.0000   
  805.00000m    805.0000m      4.0000   
  810.00000m    810.0000m      4.0000   
  815.00000m    815.0000m      4.0000   
  820.00000m    820.0000m      4.0000   
  825.00000m    825.0000m      4.0000   
  830.00000m    830.0000m      4.0000   
  835.00000m    835.0000m      4.0000   
  840.00000m    840.0000m      4.0000   
  845.00000m    845.0000m      4.0000   
  850.00000m    850.0000m      4.0000   
  855.00000m    855.0000m      4.0000   
  860.00000m    860.0000m      4.0000   
  865.00000m    865.0000m      4.0000   
  870.00000m    870.0000m      4.0000   
  875.00000m    875.0000m      4.0000   
  880.00000m    880.0000m      4.0000   
  885.00000m    885.0000m      4.0000   
  890.00000m    890.0000m      4.0000   
  895.00000m    895.0000m      4.0000   
  900.00000m    900.0000m      4.0000   
  905.00000m    905.0000m      4.0000   
  910.00000m    910.0000m      4.0000   
  915.00000m    915.0000m      4.0000   
  920.00000m    920.0000m      4.0000   
  925.00000m    925.0000m      4.0000   
  930.00000m    930.0000m      4.0000   
  935.00000m    935.0000m      4.0000   
  940.00000m    940.0000m      4.0000   
  945.00000m    945.0000m      4.0000   
  950.00000m    950.0000m      4.0000   
  955.00000m    955.0000m      4.0000   
  960.00000m    960.0000m      4.0000   
  965.00000m    965.0000m      4.0000   
  970.00000m    970.0000m      4.0000   
  975.00000m    975.0000m      4.0000   
  980.00000m    980.0000m      4.0000   
  985.00000m    985.0000m      4.0000   
  990.00000m    990.0000m      4.0000   
  995.00000m    995.0000m      4.0000   
    1.00000       1.0000       4.0000   
    1.00500       1.0050       4.0000   
    1.01000       1.0100       4.0000   
    1.01500       1.0150       4.0000   
    1.02000       1.0200       4.0000   
    1.02500       1.0250       4.0000   
    1.03000       1.0300       4.0000   
    1.03500       1.0350       4.0000   
    1.04000       1.0400       4.0000   
    1.04500       1.0450       4.0000   
    1.05000       1.0500       4.0000   
    1.05500       1.0550       4.0000   
    1.06000       1.0600       4.0000   
    1.06500       1.0650       4.0000   
    1.07000       1.0700       4.0000   
    1.07500       1.0750       4.0000   
    1.08000       1.0800       4.0000   
    1.08500       1.0850       4.0000   
    1.09000       1.0900       4.0000   
    1.09500       1.0950       4.0000   
    1.10000       1.1000       4.0000   
    1.10500       1.1050       4.0000   
    1.11000       1.1100       4.0000   
    1.11500       1.1150       4.0000   
    1.12000       1.1200       4.0000   
    1.12500       1.1250       4.0000   
    1.13000       1.1300       4.0000   
    1.13500       1.1350       4.0000   
    1.14000       1.1400       4.0000   
    1.14500       1.1450       4.0000   
    1.15000       1.1500       4.0000   
    1.15500       1.1550       4.0000   
    1.16000       1.1600       4.0000   
    1.16500       1.1650       4.0000   
    1.17000       1.1700       4.0000   
    1.17500       1.1750       4.0000   
    1.18000       1.1800       4.0000   
    1.18500       1.1850       4.0000   
    1.19000       1.1900       4.0000   
    1.19500       1.1950       4.0000   
    1.20000       1.2000       4.0000   
    1.20500       1.2050       4.0000   
    1.21000       1.2100       4.0000   
    1.21500       1.2150       4.0000   
    1.22000       1.2200       4.0000   
    1.22500       1.2250       4.0000   
    1.23000       1.2300       4.0000   
    1.23500       1.2350       4.0000   
    1.24000       1.2400       4.0000   
    1.24500       1.2450       4.0000   
    1.25000       1.2500       4.0000   
    1.25500       1.2550       4.0000   
    1.26000       1.2600       4.0000   
    1.26500       1.2650       4.0000   
    1.27000       1.2700       4.0000   
    1.27500       1.2750       4.0000   
    1.28000       1.2800       4.0000   
    1.28500       1.2850       4.0000   
    1.29000       1.2900       4.0000   
    1.29500       1.2950       4.0000   
    1.30000       1.3000       4.0000   
    1.30500       1.3050       4.0000   
    1.31000       1.3100       4.0000   
    1.31500       1.3150       4.0000   
    1.32000       1.3200       4.0000   
    1.32500       1.3250       4.0000   
    1.33000       1.3300       4.0000   
    1.33500       1.3350       4.0000   
    1.34000       1.3400       4.0000   
    1.34500       1.3450       4.0000   
    1.35000       1.3500       4.0000   
    1.35500       1.3550       4.0000   
    1.36000       1.3600       4.0000   
    1.36500       1.3650       4.0000   
    1.37000       1.3700       4.0000   
    1.37500       1.3750       4.0000   
    1.38000       1.3800       4.0000   
    1.38500       1.3850       4.0000   
    1.39000       1.3900       4.0000   
    1.39500       1.3950       4.0000   
    1.40000       1.4000       4.0000   
    1.40500       1.4050       4.0000   
    1.41000       1.4100       4.0000   
    1.41500       1.4150       4.0000   
    1.42000       1.4200       4.0000   
    1.42500       1.4250       4.0000   
    1.43000       1.4300       4.0000   
    1.43500       1.4350       4.0000   
    1.44000       1.4400       4.0000   
    1.44500       1.4450       4.0000   
    1.45000       1.4500       4.0000   
    1.45500       1.4550       4.0000   
    1.46000       1.4600       4.0000   
    1.46500       1.4650       4.0000   
    1.47000       1.4700       4.0000   
    1.47500       1.4750       4.0000   
    1.48000       1.4800       4.0000   
    1.48500       1.4850       4.0000   
    1.49000       1.4900       4.0000   
    1.49500       1.4950       4.0000   
    1.50000       1.5000       4.0000   
    1.50500       1.5050       4.0000   
    1.51000       1.5100       4.0000   
    1.51500       1.5150       4.0000   
    1.52000       1.5200       4.0000   
    1.52500       1.5250       4.0000   
    1.53000       1.5300       4.0000   
    1.53500       1.5350       4.0000   
    1.54000       1.5400       4.0000   
    1.54500       1.5450       4.0000   
    1.55000       1.5500       4.0000   
    1.55500       1.5550       4.0000   
    1.56000       1.5600       4.0000   
    1.56500       1.5650       4.0000   
    1.57000       1.5700       4.0000   
    1.57500       1.5750       4.0000   
    1.58000       1.5800       4.0000   
    1.58500       1.5850       4.0000   
    1.59000       1.5900       4.0000   
    1.59500       1.5950       4.0000   
    1.60000       1.6000       4.0000   
    1.60500       1.6050       4.0000   
    1.61000       1.6100       4.0000   
    1.61500       1.6150       4.0000   
    1.62000       1.6200       4.0000   
    1.62500       1.6250       4.0000   
    1.63000       1.6300       4.0000   
    1.63500       1.6350       4.0000   
    1.64000       1.6400       4.0000   
    1.64500       1.6450       4.0000   
    1.65000       1.6500       4.0000   
    1.65500       1.6550       4.0000   
    1.66000       1.6600       4.0000   
    1.66500       1.6650       4.0000   
    1.67000       1.6700       4.0000   
    1.67500       1.6750       4.0000   
    1.68000       1.6800       4.0000   
    1.68500       1.6850       4.0000   
    1.69000       1.6900       4.0000   
    1.69500       1.6950       4.0000   
    1.70000       1.7000       4.0000   
    1.70500       1.7050       4.0000   
    1.71000       1.7100       4.0000   
    1.71500       1.7150       4.0000   
    1.72000       1.7200       4.0000   
    1.72500       1.7250       4.0000   
    1.73000       1.7300       4.0000   
    1.73500       1.7350       4.0000   
    1.74000       1.7400       4.0000   
    1.74500       1.7450       4.0000   
    1.75000       1.7500       4.0000   
    1.75500       1.7550       4.0000   
    1.76000       1.7600       4.0000   
    1.76500       1.7650       4.0000   
    1.77000       1.7700       4.0000   
    1.77500       1.7750       4.0000   
    1.78000       1.7800       4.0000   
    1.78500       1.7850       4.0000   
    1.79000       1.7900       4.0000   
    1.79500       1.7950       4.0000   
    1.80000       1.8000       4.0000   
    1.80500       1.8050       4.0000   
    1.81000       1.8100       4.0000   
    1.81500       1.8150       4.0000   
    1.82000       1.8200       4.0000   
    1.82500       1.8250       4.0000   
    1.83000       1.8300       4.0000   
    1.83500       1.8350       4.0000   
    1.84000       1.8400       4.0000   
    1.84500       1.8450       4.0000   
    1.85000       1.8500       4.0000   
    1.85500       1.8550       4.0000   
    1.86000       1.8600       4.0000   
    1.86500       1.8650       4.0000   
    1.87000       1.8700       4.0000   
    1.87500       1.8750       4.0000   
    1.88000       1.8800       4.0000   
    1.88500       1.8850       4.0000   
    1.89000       1.8900       4.0000   
    1.89500       1.8950       4.0000   
    1.90000       1.9000       4.0000   
    1.90500       1.9050       4.0000   
    1.91000       1.9100       4.0000   
    1.91500       1.9150       3.9999   
    1.92000       1.9200       3.9999   
    1.92500       1.9250       3.9999   
    1.93000       1.9300       3.9999   
    1.93500       1.9350       3.9999   
    1.94000       1.9400       3.9999   
    1.94500       1.9450       3.9999   
    1.95000       1.9500       3.9999   
    1.95500       1.9550       3.9999   
    1.96000       1.9600       3.9999   
    1.96500       1.9650       3.9999   
    1.97000       1.9700       3.9999   
    1.97500       1.9750       3.9999   
    1.98000       1.9800       3.9999   
    1.98500       1.9850       3.9999   
    1.99000       1.9900       3.9999   
    1.99500       1.9950       3.9999   
    2.00000       2.0000       3.9999   
    2.00500       2.0050       3.9999   
    2.01000       2.0100       3.9999   
    2.01500       2.0150       3.9999   
    2.02000       2.0200       3.9999   
    2.02500       2.0250       3.9999   
    2.03000       2.0300       3.9999   
    2.03500       2.0350       3.9999   
    2.04000       2.0400       3.9999   
    2.04500       2.0450       3.9999   
    2.05000       2.0500       3.9999   
    2.05500       2.0550       3.9999   
    2.06000       2.0600       3.9999   
    2.06500       2.0650       3.9999   
    2.07000       2.0700       3.9999   
    2.07500       2.0750       3.9999   
    2.08000       2.0800       3.9999   
    2.08500       2.0850       3.9999   
    2.09000       2.0900       3.9999   
    2.09500       2.0950       3.9999   
    2.10000       2.1000       3.9999   
    2.10500       2.1050       3.9999   
    2.11000       2.1100       3.9999   
    2.11500       2.1150       3.9999   
    2.12000       2.1200       3.9999   
    2.12500       2.1250       3.9999   
    2.13000       2.1300       3.9999   
    2.13500       2.1350       3.9999   
    2.14000       2.1400       3.9999   
    2.14500       2.1450       3.9999   
    2.15000       2.1500       3.9999   
    2.15500       2.1550       3.9999   
    2.16000       2.1600       3.9999   
    2.16500       2.1650       3.9999   
    2.17000       2.1700       3.9999   
    2.17500       2.1750       3.9999   
    2.18000       2.1800       3.9999   
    2.18500       2.1850       3.9999   
    2.19000       2.1900       3.9999   
    2.19500       2.1950       3.9999   
    2.20000       2.2000       3.9999   
    2.20500       2.2050       3.9999   
    2.21000       2.2100       3.9999   
    2.21500       2.2150       3.9999   
    2.22000       2.2200       3.9999   
    2.22500       2.2250       3.9999   
    2.23000       2.2300       3.9999   
    2.23500       2.2350       3.9999   
    2.24000       2.2400       3.9999   
    2.24500       2.2450       3.9999   
    2.25000       2.2500       3.9999   
    2.25500       2.2550       3.9999   
    2.26000       2.2600       3.9999   
    2.26500       2.2650       3.9999   
    2.27000       2.2700       3.9999   
    2.27500       2.2750       3.9999   
    2.28000       2.2800       3.9999   
    2.28500       2.2850       3.9999   
    2.29000       2.2900       3.9999   
    2.29500       2.2950       3.9999   
    2.30000       2.3000       3.9999   
    2.30500       2.3050       3.9999   
    2.31000       2.3100       3.9999   
    2.31500       2.3150       3.9999   
    2.32000       2.3200       3.9999   
    2.32500       2.3250       3.9999   
    2.33000       2.3300       3.9999   
    2.33500       2.3350       3.9999   
    2.34000       2.3400       3.9999   
    2.34500       2.3450       3.9999   
    2.35000       2.3500       3.9999   
    2.35500       2.3550       3.9999   
    2.36000       2.3600       3.9999   
    2.36500       2.3650       3.9999   
    2.37000       2.3700       3.9999   
    2.37500       2.3750       3.9999   
    2.38000       2.3800       3.9999   
    2.38500       2.3850       3.9999   
    2.39000       2.3900       3.9999   
    2.39500       2.3950       3.9999   
    2.40000       2.4000       3.9999   
    2.40500       2.4050       3.9999   
    2.41000       2.4100       3.9999   
    2.41500       2.4150       3.9999   
    2.42000       2.4200       3.9999   
    2.42500       2.4250       3.9999   
    2.43000       2.4300       3.9999   
    2.43500       2.4350       3.9999   
    2.44000       2.4400       3.9999   
    2.44500       2.4450       3.9999   
    2.45000       2.4500       3.9999   
    2.45500       2.4550       3.9999   
    2.46000       2.4600       3.9999   
    2.46500       2.4650       3.9999   
    2.47000       2.4700       3.9999   
    2.47500       2.4750       3.9999   
    2.48000       2.4800       3.9999   
    2.48500       2.4850       3.9999   
    2.49000       2.4900       3.9999   
    2.49500       2.4950       3.9999   
    2.50000       2.5000       3.9999   
    2.50500       2.5050       3.9999   
    2.51000       2.5100       3.9999   
    2.51500       2.5150       3.9999   
    2.52000       2.5200       3.9999   
    2.52500       2.5250       3.9999   
    2.53000       2.5300       3.9999   
    2.53500       2.5350       3.9999   
    2.54000       2.5400       3.9999   
    2.54500       2.5450       3.9999   
    2.55000       2.5500       3.9999   
    2.55500       2.5550       3.9999   
    2.56000       2.5600       3.9999   
    2.56500       2.5650       3.9999   
    2.57000       2.5700       3.9999   
    2.57500       2.5750       3.9999   
    2.58000       2.5800       3.9999   
    2.58500       2.5850       3.9999   
    2.59000       2.5900       3.9999   
    2.59500       2.5950       3.9999   
    2.60000       2.6000       3.9999   
    2.60500       2.6050       3.9999   
    2.61000       2.6100       3.9999   
    2.61500       2.6150       3.9999   
    2.62000       2.6200       3.9999   
    2.62500       2.6250       3.9999   
    2.63000       2.6300       3.9999   
    2.63500       2.6350       3.9999   
    2.64000       2.6400       3.9999   
    2.64500       2.6450       3.9999   
    2.65000       2.6500       3.9999   
    2.65500       2.6550       3.9999   
    2.66000       2.6600       3.9999   
    2.66500       2.6650       3.9999   
    2.67000       2.6700       3.9999   
    2.67500       2.6750       3.9999   
    2.68000       2.6800       3.9999   
    2.68500       2.6850       3.9999   
    2.69000       2.6900       3.9999   
    2.69500       2.6950       3.9999   
    2.70000       2.7000       3.9999   
    2.70500       2.7050       3.9999   
    2.71000       2.7100       3.9999   
    2.71500       2.7150       3.9999   
    2.72000       2.7200       3.9999   
    2.72500       2.7250       3.9999   
    2.73000       2.7300       3.9999   
    2.73500       2.7350       3.9999   
    2.74000       2.7400       3.9999   
    2.74500       2.7450       3.9999   
    2.75000       2.7500       3.9999   
    2.75500       2.7550       3.9999   
    2.76000       2.7600       3.9999   
    2.76500       2.7650       3.9999   
    2.77000       2.7700       3.9999   
    2.77500       2.7750       3.9999   
    2.78000       2.7800       3.9999   
    2.78500       2.7850       3.9999   
    2.79000       2.7900       3.9999   
    2.79500       2.7950       3.9999   
    2.80000       2.8000       3.9999   
    2.80500       2.8050       3.9999   
    2.81000       2.8100       3.9999   
    2.81500       2.8150       3.9999   
    2.82000       2.8200       3.9999   
    2.82500       2.8250       3.9999   
    2.83000       2.8300       3.9999   
    2.83500       2.8350       3.9999   
    2.84000       2.8400       3.9999   
    2.84500       2.8450       3.9999   
    2.85000       2.8500       3.9999   
    2.85500       2.8550       3.9999   
    2.86000       2.8600       3.9999   
    2.86500       2.8650       3.9999   
    2.87000       2.8700       3.9999   
    2.87500       2.8750       3.9999   
    2.88000       2.8800       3.9999   
    2.88500       2.8850       3.9999   
    2.89000       2.8900       3.9999   
    2.89500       2.8950       3.9999   
    2.90000       2.9000       3.9999   
    2.90500       2.9050       3.9999   
    2.91000       2.9100       3.9999   
    2.91500       2.9150       3.9999   
    2.92000       2.9200       3.9999   
    2.92500       2.9250       3.9999   
    2.93000       2.9300       3.9999   
    2.93500       2.9350       3.9999   
    2.94000       2.9400       3.9999   
    2.94500       2.9450       3.9999   
    2.95000       2.9500       3.9999   
    2.95500       2.9550       3.9999   
    2.96000       2.9600       3.9999   
    2.96500       2.9650       3.9999   
    2.97000       2.9700       3.9999   
    2.97500       2.9750       3.9999   
    2.98000       2.9800       3.9999   
    2.98500       2.9850       3.9999   
    2.99000       2.9900       3.9999   
    2.99500       2.9950       3.9999   
    3.00000       3.0000       3.9999   
    3.00500       3.0050       3.9999   
    3.01000       3.0100       3.9999   
    3.01500       3.0150       3.9999   
    3.02000       3.0200       3.9999   
    3.02500       3.0250       3.9999   
    3.03000       3.0300       3.9999   
    3.03500       3.0350       3.9999   
    3.04000       3.0400       3.9999   
    3.04500       3.0450       3.9999   
    3.05000       3.0500       3.9999   
    3.05500       3.0550       3.9999   
    3.06000       3.0600       3.9999   
    3.06500       3.0650       3.9999   
    3.07000       3.0700       3.9999   
    3.07500       3.0750       3.9999   
    3.08000       3.0800       3.9999   
    3.08500       3.0850       3.9999   
    3.09000       3.0900       3.9999   
    3.09500       3.0950       3.9999   
    3.10000       3.1000       3.9999   
    3.10500       3.1050       3.9999   
    3.11000       3.1100       3.9999   
    3.11500       3.1150       3.9999   
    3.12000       3.1200       3.9999   
    3.12500       3.1250       3.9999   
    3.13000       3.1300       3.9999   
    3.13500       3.1350       3.9999   
    3.14000       3.1400       3.9999   
    3.14500       3.1450       3.9999   
    3.15000       3.1500       3.9999   
    3.15500       3.1550       3.9999   
    3.16000       3.1600       3.9999   
    3.16500       3.1650       3.9999   
    3.17000       3.1700       3.9999   
    3.17500       3.1750       3.9999   
    3.18000       3.1800       3.9999   
    3.18500       3.1850       3.9999   
    3.19000       3.1900       3.9999   
    3.19500       3.1950       3.9999   
    3.20000       3.2000       3.9999   
    3.20500       3.2050       3.9999   
    3.21000       3.2100       3.9999   
    3.21500       3.2150       3.9999   
    3.22000       3.2200       3.9999   
    3.22500       3.2250       3.9999   
    3.23000       3.2300       3.9999   
    3.23500       3.2350       3.9999   
    3.24000       3.2400       3.9999   
    3.24500       3.2450       3.9999   
    3.25000       3.2500       3.9999   
    3.25500       3.2550       3.9999   
    3.26000       3.2600       3.9999   
    3.26500       3.2650       3.9999   
    3.27000       3.2700       3.9999   
    3.27500       3.2750       3.9999   
    3.28000       3.2800       3.9999   
    3.28500       3.2850       3.9999   
    3.29000       3.2900       3.9999   
    3.29500       3.2950       3.9999   
    3.30000       3.3000       3.9999   
    3.30500       3.3050       3.9999   
    3.31000       3.3100       3.9999   
    3.31500       3.3150       3.9999   
    3.32000       3.3200       3.9999   
    3.32500       3.3250       3.9999   
    3.33000       3.3300       3.9999   
    3.33500       3.3350       3.9999   
    3.34000       3.3400       3.9999   
    3.34500       3.3450       3.9999   
    3.35000       3.3500       3.9999   
    3.35500       3.3550       3.9999   
    3.36000       3.3600       3.9999   
    3.36500       3.3650       3.9999   
    3.37000       3.3700       3.9999   
    3.37500       3.3750       3.9999   
    3.38000       3.3800       3.9999   
    3.38500       3.3850       3.9999   
    3.39000       3.3900       3.9999   
    3.39500       3.3950       3.9999   
    3.40000       3.4000       3.9999   
    3.40500       3.4050       3.9999   
    3.41000       3.4100       3.9999   
    3.41500       3.4150       3.9999   
    3.42000       3.4200       3.9999   
    3.42500       3.4250       3.9999   
    3.43000       3.4300       3.9999   
    3.43500       3.4350       3.9999   
    3.44000       3.4400       3.9999   
    3.44500       3.4450       3.9999   
    3.45000       3.4500       3.9999   
    3.45500       3.4550       3.9999   
    3.46000       3.4600       3.9999   
    3.46500       3.4650       3.9999   
    3.47000       3.4700       3.9999   
    3.47500       3.4750       3.9999   
    3.48000       3.4800       3.9999   
    3.48500       3.4850       3.9999   
    3.49000       3.4900       3.9999   
    3.49500       3.4950       3.9999   
    3.50000       3.5000       3.9999   
    3.50500       3.5050       3.9999   
    3.51000       3.5100       3.9999   
    3.51500       3.5150       3.9999   
    3.52000       3.5200       3.9999   
    3.52500       3.5250       3.9999   
    3.53000       3.5300       3.9999   
    3.53500       3.5350       3.9999   
    3.54000       3.5400       3.9999   
    3.54500       3.5450       3.9999   
    3.55000       3.5500       3.9999   
    3.55500       3.5550       3.9999   
    3.56000       3.5600       3.9999   
    3.56500       3.5650       3.9999   
    3.57000       3.5700       3.9999   
    3.57500       3.5750       3.9999   
    3.58000       3.5800       3.9999   
    3.58500       3.5850       3.9999   
    3.59000       3.5900       3.9999   
    3.59500       3.5950       3.9999   
    3.60000       3.6000       3.9999   
    3.60500       3.6050       3.9999   
    3.61000       3.6100       3.9999   
    3.61500       3.6150       3.9999   
    3.62000       3.6200       3.9999   
    3.62500       3.6250       3.9999   
    3.63000       3.6300       3.9999   
    3.63500       3.6350       3.9999   
    3.64000       3.6400       3.9999   
    3.64500       3.6450       3.9999   
    3.65000       3.6500       3.9999   
    3.65500       3.6550       3.9999   
    3.66000       3.6600       3.9999   
    3.66500       3.6650       3.9999   
    3.67000       3.6700       3.9999   
    3.67500       3.6750       3.9999   
    3.68000       3.6800       3.9999   
    3.68500       3.6850       3.9999   
    3.69000       3.6900       3.9999   
    3.69500       3.6950       3.9999   
    3.70000       3.7000       3.9999   
    3.70500       3.7050       3.9999   
    3.71000       3.7100       3.9999   
    3.71500       3.7150       3.9999   
    3.72000       3.7200       3.9999   
    3.72500       3.7250       3.9999   
    3.73000       3.7300       3.9999   
    3.73500       3.7350       3.9999   
    3.74000       3.7400       3.9999   
    3.74500       3.7450       3.9999   
    3.75000       3.7500       3.9999   
    3.75500       3.7550       3.9999   
    3.76000       3.7600       3.9999   
    3.76500       3.7650       3.9999   
    3.77000       3.7700       3.9999   
    3.77500       3.7750       3.9999   
    3.78000       3.7800       3.9999   
    3.78500       3.7850       3.9999   
    3.79000       3.7900       3.9999   
    3.79500       3.7950       3.9999   
    3.80000       3.8000       3.9999   
    3.80500       3.8050       3.9999   
    3.81000       3.8100       3.9999   
    3.81500       3.8150       3.9999   
    3.82000       3.8200       3.9999   
    3.82500       3.8250       3.9999   
    3.83000       3.8300       3.9999   
    3.83500       3.8350       3.9999   
    3.84000       3.8400       3.9999   
    3.84500       3.8450       3.9999   
    3.85000       3.8500       3.9999   
    3.85500       3.8550       3.9999   
    3.86000       3.8600       3.9999   
    3.86500       3.8650       3.9999   
    3.87000       3.8700       3.9999   
    3.87500       3.8750       3.9999   
    3.88000       3.8800       3.9999   
    3.88500       3.8850       3.9999   
    3.89000       3.8900       3.9999   
    3.89500       3.8950       3.9999   
    3.90000       3.9000       3.9999   
    3.90500       3.9050       3.9999   
    3.91000       3.9100       3.9999   
    3.91500       3.9150       3.9999   
    3.92000       3.9200       3.9999   
    3.92500       3.9250       3.9999   
    3.93000       3.9300       3.9999   
    3.93500       3.9350       3.9999   
    3.94000       3.9400       3.9999   
    3.94500       3.9450       3.9999   
    3.95000       3.9500       3.9999   
    3.95500       3.9550       3.9999   
    3.96000       3.9600       3.9999   
    3.96500       3.9650       3.9999   
    3.97000       3.9700       3.9999   
    3.97500       3.9750       3.9999   
    3.98000       3.9800       3.9999   
    3.98500       3.9850       3.9999   
    3.99000       3.9900       3.9999   
    3.99500       3.9950       3.9999   
    4.00000       4.0000       3.9999   
    4.00500       4.0050       3.9999   
    4.01000       4.0100       3.9999   
    4.01500       4.0150       3.9999   
    4.02000       4.0200       3.9999   
    4.02500       4.0250       3.9999   
    4.03000       4.0300       3.9999   
    4.03500       4.0350       3.9999   
    4.04000       4.0400       3.9999   
    4.04500       4.0450       3.9999   
    4.05000       4.0500       3.9999   
    4.05500       4.0550       3.9999   
    4.06000       4.0600       3.9999   
    4.06500       4.0650       3.9999   
    4.07000       4.0700       3.9999   
    4.07500       4.0750       3.9999   
    4.08000       4.0800       3.9999   
    4.08500       4.0850       3.9999   
    4.09000       4.0900       3.9999   
    4.09500       4.0950       3.9999   
    4.10000       4.1000       3.9999   
    4.10500       4.1050       3.9999   
    4.11000       4.1100       3.9999   
    4.11500       4.1150       3.9999   
    4.12000       4.1200       3.9999   
    4.12500       4.1250       3.9999   
    4.13000       4.1300       3.9999   
    4.13500       4.1350       3.9999   
    4.14000       4.1400       3.9999   
    4.14500       4.1450       3.9999   
    4.15000       4.1500       3.9999   
    4.15500       4.1550       3.9999   
    4.16000       4.1600       3.9999   
    4.16500       4.1650       3.9999   
    4.17000       4.1700       3.9999   
    4.17500       4.1750       3.9999   
    4.18000       4.1800       3.9999   
    4.18500       4.1850       3.9999   
    4.19000       4.1900       3.9999   
    4.19500       4.1950       3.9999   
    4.20000       4.2000       3.9999   
    4.20500       4.2050       3.9999   
    4.21000       4.2100       3.9999   
    4.21500       4.2150       3.9999   
    4.22000       4.2200       3.9999   
    4.22500       4.2250       3.9999   
    4.23000       4.2300       3.9999   
    4.23500       4.2350       3.9999   
    4.24000       4.2400       3.9999   
    4.24500       4.2450       3.9999   
    4.25000       4.2500       3.9999   
    4.25500       4.2550       3.9999   
    4.26000       4.2600       3.9999   
    4.26500       4.2650       3.9999   
    4.27000       4.2700       3.9999   
    4.27500       4.2750       3.9999   
    4.28000       4.2800       3.9999   
    4.28500       4.2850       3.9999   
    4.29000       4.2900       3.9999   
    4.29500       4.2950       3.9999   
    4.30000       4.3000       3.9999   
    4.30500       4.3050       3.9999   
    4.31000       4.3100       3.9999   
    4.31500       4.3150       3.9999   
    4.32000       4.3200       3.9999   
    4.32500       4.3250       3.9999   
    4.33000       4.3300       3.9999   
    4.33500       4.3350       3.9999   
    4.34000       4.3400       3.9999   
    4.34500       4.3450       3.9999   
    4.35000       4.3500       3.9999   
    4.35500       4.3550       3.9999   
    4.36000       4.3600       3.9999   
    4.36500       4.3650       3.9999   
    4.37000       4.3700       3.9999   
    4.37500       4.3750       3.9999   
    4.38000       4.3800       3.9999   
    4.38500       4.3850       3.9999   
    4.39000       4.3900       3.9999   
    4.39500       4.3950       3.9999   
    4.40000       4.4000       3.9999   
    4.40500       4.4050       3.9999   
    4.41000       4.4100       3.9999   
    4.41500       4.4150       3.9999   
    4.42000       4.4200       3.9999   
    4.42500       4.4250       3.9999   
    4.43000       4.4300       3.9999   
    4.43500       4.4350       3.9999   
    4.44000       4.4400       3.9999   
    4.44500       4.4450       3.9999   
    4.45000       4.4500       3.9999   
    4.45500       4.4550       3.9999   
    4.46000       4.4600       3.9999   
    4.46500       4.4650       3.9999   
    4.47000       4.4700       3.9999   
    4.47500       4.4750       3.9999   
    4.48000       4.4800       3.9999   
    4.48500       4.4850       3.9999   
    4.49000       4.4900       3.9999   
    4.49500       4.4950       3.9999   
    4.50000       4.5000       3.9999   
    4.50500       4.5050       3.9999   
    4.51000       4.5100       3.9999   
    4.51500       4.5150       3.9999   
    4.52000       4.5200       3.9999   
    4.52500       4.5250       3.9999   
    4.53000       4.5300       3.9999   
    4.53500       4.5350       3.9999   
    4.54000       4.5400       3.9999   
    4.54500       4.5450       3.9999   
    4.55000       4.5500       3.9999   
    4.55500       4.5550       3.9999   
    4.56000       4.5600       3.9999   
    4.56500       4.5650       3.9999   
    4.57000       4.5700       3.9999   
    4.57500       4.5750       3.9999   
    4.58000       4.5800       3.9999   
    4.58500       4.5850       3.9999   
    4.59000       4.5900       3.9999   
    4.59500       4.5950       3.9999   
    4.60000       4.6000       3.9999   
    4.60500       4.6050       3.9999   
    4.61000       4.6100       3.9999   
    4.61500       4.6150       3.9999   
    4.62000       4.6200       3.9999   
    4.62500       4.6250       3.9999   
    4.63000       4.6300       3.9999   
    4.63500       4.6350       3.9999   
    4.64000       4.6400       3.9999   
    4.64500       4.6450       3.9999   
    4.65000       4.6500       3.9999   
    4.65500       4.6550       3.9999   
    4.66000       4.6600       3.9999   
    4.66500       4.6650       3.9999   
    4.67000       4.6700       3.9999   
    4.67500       4.6750       3.9999   
    4.68000       4.6800       3.9999   
    4.68500       4.6850       3.9999   
    4.69000       4.6900       3.9999   
    4.69500       4.6950       3.9999   
    4.70000       4.7000       3.9999   
    4.70500       4.7050       3.9999   
    4.71000       4.7100       3.9999   
    4.71500       4.7150       3.9999   
    4.72000       4.7200       3.9999   
    4.72500       4.7250       3.9999   
    4.73000       4.7300       3.9999   
    4.73500       4.7350       3.9999   
    4.74000       4.7400       3.9999   
    4.74500       4.7450       3.9999   
    4.75000       4.7500       3.9999   
    4.75500       4.7550       3.9999   
    4.76000       4.7600       3.9999   
    4.76500       4.7650       3.9999   
    4.77000       4.7700       3.9999   
    4.77500       4.7750       3.9999   
    4.78000       4.7800       3.9999   
    4.78500       4.7850       3.9999   
    4.79000       4.7900       3.9999   
    4.79500       4.7950       3.9999   
    4.80000       4.8000       3.9999   
    4.80500       4.8050       3.9999   
    4.81000       4.8100       3.9999   
    4.81500       4.8150       3.9999   
    4.82000       4.8200       3.9999   
    4.82500       4.8250       3.9999   
    4.83000       4.8300       3.9999   
    4.83500       4.8350       3.9999   
    4.84000       4.8400       3.9999   
    4.84500       4.8450       3.9999   
    4.85000       4.8500       3.9999   
    4.85500       4.8550       3.9999   
    4.86000       4.8600       3.9999   
    4.86500       4.8650       3.9999   
    4.87000       4.8700       3.9999   
    4.87500       4.8750       3.9999   
    4.88000       4.8800       3.9999   
    4.88500       4.8850       3.9999   
    4.89000       4.8900       3.9999   
    4.89500       4.8950       3.9999   
    4.90000       4.9000       3.9999   
    4.90500       4.9050       3.9999   
    4.91000       4.9100       3.9999   
    4.91500       4.9150       3.9999   
    4.92000       4.9200       3.9999   
    4.92500       4.9250       3.9999   
    4.93000       4.9300       3.9999   
    4.93500       4.9350       3.9999   
    4.94000       4.9400       3.9999   
    4.94500       4.9450       3.9999   
    4.95000       4.9500       3.9999   
    4.95500       4.9550       3.9999   
    4.96000       4.9600       3.9999   
    4.96500       4.9650       3.9999   
    4.97000       4.9700       3.9999   
    4.97500       4.9750       3.9999   
    4.98000       4.9800       3.9999   
    4.98500       4.9850       3.9999   
    4.99000       4.9900       3.9999   
    4.99500       4.9950       3.9999   
    5.00000       5.0000       3.9999   
    5.00500       5.0050       3.9999   
    5.01000       5.0100       3.9999   
    5.01500       5.0150       3.9999   
    5.02000       5.0200       3.9999   
    5.02500       5.0250       3.9999   
    5.03000       5.0300       3.9999   
    5.03500       5.0350       3.9999   
    5.04000       5.0400       3.9999   
    5.04500       5.0450       3.9999   
    5.05000       5.0500       3.9999   
    5.05500       5.0550       3.9999   
    5.06000       5.0600       3.9999   
    5.06500       5.0650       3.9999   
    5.07000       5.0700       3.9999   
    5.07500       5.0750       3.9999   
    5.08000       5.0800       3.9999   
    5.08500       5.0850       3.9999   
    5.09000       5.0900       3.9999   
    5.09500       5.0950       3.9999   
    5.10000       5.1000       3.9999   
    5.10500       5.1050       3.9999   
    5.11000       5.1100       3.9999   
    5.11500       5.1150       3.9999   
    5.12000       5.1200       3.9999   
    5.12500       5.1250       3.9999   
    5.13000       5.1300       3.9999   
    5.13500       5.1350       3.9999   
    5.14000       5.1400       3.9999   
    5.14500       5.1450       3.9999   
    5.15000       5.1500       3.9999   
    5.15500       5.1550       3.9999   
    5.16000       5.1600       3.9999   
    5.16500       5.1650       3.9999   
    5.17000       5.1700       3.9999   
    5.17500       5.1750       3.9999   
    5.18000       5.1800       3.9999   
    5.18500       5.1850       3.9999   
    5.19000       5.1900       3.9999   
    5.19500       5.1950       3.9999   
    5.20000       5.2000       3.9999   
    5.20500       5.2050       3.9999   
    5.21000       5.2100       3.9999   
    5.21500       5.2150       3.9999   
    5.22000       5.2200       3.9999   
    5.22500       5.2250       3.9999   
    5.23000       5.2300       3.9999   
    5.23500       5.2350       3.9999   
    5.24000       5.2400       3.9999   
    5.24500       5.2450       3.9999   
    5.25000       5.2500       3.9999   
    5.25500       5.2550       3.9999   
    5.26000       5.2600       3.9999   
    5.26500       5.2650       3.9999   
    5.27000       5.2700       3.9999   
    5.27500       5.2750       3.9999   
    5.28000       5.2800       3.9999   
    5.28500       5.2850       3.9999   
    5.29000       5.2900       3.9999   
    5.29500       5.2950       3.9999   
    5.30000       5.3000       3.9998   
    5.30500       5.3050       3.9998   
    5.31000       5.3100       3.9998   
    5.31500       5.3150       3.9998   
    5.32000       5.3200       3.9998   
    5.32500       5.3250       3.9998   
    5.33000       5.3300       3.9998   
    5.33500       5.3350       3.9998   
    5.34000       5.3400       3.9998   
    5.34500       5.3450       3.9998   
    5.35000       5.3500       3.9998   
    5.35500       5.3550       3.9998   
    5.36000       5.3600       3.9998   
    5.36500       5.3650       3.9998   
    5.37000       5.3700       3.9998   
    5.37500       5.3750       3.9998   
    5.38000       5.3800       3.9998   
    5.38500       5.3850       3.9998   
    5.39000       5.3900       3.9998   
    5.39500       5.3950       3.9998   
    5.40000       5.4000       3.9998   
    5.40500       5.4050       3.9998   
    5.41000       5.4100       3.9998   
    5.41500       5.4150       3.9998   
    5.42000       5.4200       3.9998   
    5.42500       5.4250       3.9998   
    5.43000       5.4300       3.9998   
    5.43500       5.4350       3.9998   
    5.44000       5.4400       3.9998   
    5.44500       5.4450       3.9998   
    5.45000       5.4500       3.9998   
    5.45500       5.4550       3.9998   
    5.46000       5.4600       3.9998   
    5.46500       5.4650       3.9998   
    5.47000       5.4700       3.9998   
    5.47500       5.4750       3.9998   
    5.48000       5.4800       3.9998   
    5.48500       5.4850       3.9998   
    5.49000       5.4900       3.9998   
    5.49500       5.4950       3.9998   
    5.50000       5.5000       3.9998   
    5.50500       5.5050       3.9998   
    5.51000       5.5100       3.9998   
    5.51500       5.5150       3.9998   
    5.52000       5.5200       3.9998   
    5.52500       5.5250       3.9998   
    5.53000       5.5300       3.9998   
    5.53500       5.5350       3.9998   
    5.54000       5.5400       3.9998   
    5.54500       5.5450       3.9998   
    5.55000       5.5500       3.9998   
    5.55500       5.5550       3.9998   
    5.56000       5.5600       3.9998   
    5.56500       5.5650       3.9998   
    5.57000       5.5700       3.9998   
    5.57500       5.5750       3.9998   
    5.58000       5.5800       3.9998   
    5.58500       5.5850       3.9998   
    5.59000       5.5900       3.9998   
    5.59500       5.5950       3.9998   
    5.60000       5.6000       3.9998   
    5.60500       5.6050       3.9998   
    5.61000       5.6100       3.9998   
    5.61500       5.6150       3.9998   
    5.62000       5.6200       3.9998   
    5.62500       5.6250       3.9998   
    5.63000       5.6300       3.9998   
    5.63500       5.6350       3.9998   
    5.64000       5.6400       3.9998   
    5.64500       5.6450       3.9998   
    5.65000       5.6500       3.9998   
    5.65500       5.6550       3.9998   
    5.66000       5.6600       3.9998   
    5.66500       5.6650       3.9998   
    5.67000       5.6700       3.9998   
    5.67500       5.6750       3.9998   
    5.68000       5.6800       3.9998   
    5.68500       5.6850       3.9998   
    5.69000       5.6900       3.9998   
    5.69500       5.6950       3.9998   
    5.70000       5.7000       3.9998   
    5.70500       5.7050       3.9998   
    5.71000       5.7100       3.9998   
    5.71500       5.7150       3.9998   
    5.72000       5.7200       3.9998   
    5.72500       5.7250       3.9998   
    5.73000       5.7300       3.9998   
    5.73500       5.7350       3.9998   
    5.74000       5.7400       3.9998   
    5.74500       5.7450       3.9998   
    5.75000       5.7500       3.9998   
    5.75500       5.7550       3.9998   
    5.76000       5.7600       3.9998   
    5.76500       5.7650       3.9998   
    5.77000       5.7700       3.9998   
    5.77500       5.7750       3.9998   
    5.78000       5.7800       3.9998   
    5.78500       5.7850       3.9998   
    5.79000       5.7900       3.9998   
    5.79500       5.7950       3.9998   
    5.80000       5.8000       3.9998   
    5.80500       5.8050       3.9998   
    5.81000       5.8100       3.9998   
    5.81500       5.8150       3.9998   
    5.82000       5.8200       3.9998   
    5.82500       5.8250       3.9998   
    5.83000       5.8300       3.9998   
    5.83500       5.8350       3.9998   
    5.84000       5.8400       3.9998   
    5.84500       5.8450       3.9998   
    5.85000       5.8500       3.9998   
    5.85500       5.8550       3.9998   
    5.86000       5.8600       3.9998   
    5.86500       5.8650       3.9998   
    5.87000       5.8700       3.9998   
    5.87500       5.8750       3.9998   
    5.88000       5.8800       3.9998   
    5.88500       5.8850       3.9998   
    5.89000       5.8900       3.9998   
    5.89500       5.8950       3.9998   
    5.90000       5.9000       3.9998   
    5.90500       5.9050       3.9998   
    5.91000       5.9100       3.9998   
    5.91500       5.9150       3.9998   
    5.92000       5.9200       3.9998   
    5.92500       5.9250       3.9998   
    5.93000       5.9300       3.9998   
    5.93500       5.9350       3.9998   
    5.94000       5.9400       3.9998   
    5.94500       5.9450       3.9998   
    5.95000       5.9500       3.9998   
    5.95500       5.9550       3.9998   
    5.96000       5.9600       3.9998   
    5.96500       5.9650       3.9998   
    5.97000       5.9700       3.9998   
    5.97500       5.9750       3.9998   
    5.98000       5.9800       3.9998   
    5.98500       5.9850       3.9998   
    5.99000       5.9900       3.9998   
    5.99500       5.9950       3.9998   
    6.00000       6.0000       3.9998   
    6.00500       6.0050       3.9998   
    6.01000       6.0100       3.9998   
    6.01500       6.0150       3.9998   
    6.02000       6.0200       3.9998   
    6.02500       6.0250       3.9998   
    6.03000       6.0300       3.9998   
    6.03500       6.0350       3.9998   
    6.04000       6.0400       3.9998   
    6.04500       6.0450       3.9998   
    6.05000       6.0500       3.9998   
    6.05500       6.0550       3.9998   
    6.06000       6.0600       3.9998   
    6.06500       6.0650       3.9998   
    6.07000       6.0700       3.9998   
    6.07500       6.0750       3.9998   
    6.08000       6.0800       3.9998   
    6.08500       6.0850       3.9998   
    6.09000       6.0900       3.9998   
    6.09500       6.0950       3.9998   
    6.10000       6.1000       3.9998   
    6.10500       6.1050       3.9998   
    6.11000       6.1100       3.9998   
    6.11500       6.1150       3.9998   
    6.12000       6.1200       3.9998   
    6.12500       6.1250       3.9998   
    6.13000       6.1300       3.9998   
    6.13500       6.1350       3.9998   
    6.14000       6.1400       3.9998   
    6.14500       6.1450       3.9998   
    6.15000       6.1500       3.9998   
    6.15500       6.1550       3.9998   
    6.16000       6.1600       3.9998   
    6.16500       6.1650       3.9998   
    6.17000       6.1700       3.9998   
    6.17500       6.1750       3.9998   
    6.18000       6.1800       3.9998   
    6.18500       6.1850       3.9998   
    6.19000       6.1900       3.9998   
    6.19500       6.1950       3.9998   
    6.20000       6.2000       3.9998   
    6.20500       6.2050       3.9998   
    6.21000       6.2100       3.9998   
    6.21500       6.2150       3.9998   
    6.22000       6.2200       3.9998   
    6.22500       6.2250       3.9998   
    6.23000       6.2300       3.9998   
    6.23500       6.2350       3.9998   
    6.24000       6.2400       3.9998   
    6.24500       6.2450       3.9998   
    6.25000       6.2500       3.9998   
    6.25500       6.2550       3.9998   
    6.26000       6.2600       3.9998   
    6.26500       6.2650       3.9998   
    6.27000       6.2700       3.9998   
    6.27500       6.2750       3.9998   
    6.28000       6.2800       3.9998   
    6.28500       6.2850       3.9998   
    6.29000       6.2900       3.9998   
    6.29500       6.2950       3.9998   
    6.30000       6.3000       3.9998   
    6.30500       6.3050       3.9998   
    6.31000       6.3100       3.9998   
    6.31500       6.3150       3.9998   
    6.32000       6.3200       3.9998   
    6.32500       6.3250       3.9998   
    6.33000       6.3300       3.9998   
    6.33500       6.3350       3.9998   
    6.34000       6.3400       3.9998   
    6.34500       6.3450       3.9998   
    6.35000       6.3500       3.9998   
    6.35500       6.3550       3.9998   
    6.36000       6.3600       3.9998   
    6.36500       6.3650       3.9998   
    6.37000       6.3700       3.9998   
    6.37500       6.3750       3.9998   
    6.38000       6.3800       3.9998   
    6.38500       6.3850       3.9998   
    6.39000       6.3900       3.9998   
    6.39500       6.3950       3.9998   
    6.40000       6.4000       3.9998   
    6.40500       6.4050       3.9998   
    6.41000       6.4100       3.9998   
    6.41500       6.4150       3.9998   
    6.42000       6.4200       3.9998   
    6.42500       6.4250       3.9998   
    6.43000       6.4300       3.9998   
    6.43500       6.4350       3.9998   
    6.44000       6.4400       3.9998   
    6.44500       6.4450       3.9998   
    6.45000       6.4500       3.9998   
    6.45500       6.4550       3.9998   
    6.46000       6.4600       3.9998   
    6.46500       6.4650       3.9998   
    6.47000       6.4700       3.9998   
    6.47500       6.4750       3.9998   
    6.48000       6.4800       3.9998   
    6.48500       6.4850       3.9998   
    6.49000       6.4900       3.9998   
    6.49500       6.4950       3.9998   
    6.50000       6.5000       3.9997   
    6.50500       6.5050       3.9997   
    6.51000       6.5100       3.9997   
    6.51500       6.5150       3.9997   
    6.52000       6.5200       3.9997   
    6.52500       6.5250       3.9997   
    6.53000       6.5300       3.9997   
    6.53500       6.5350       3.9997   
    6.54000       6.5400       3.9997   
    6.54500       6.5450       3.9997   
    6.55000       6.5500       3.9997   
    6.55500       6.5550       3.9997   
    6.56000       6.5600       3.9997   
    6.56500       6.5650       3.9997   
    6.57000       6.5700       3.9997   
    6.57500       6.5750       3.9997   
    6.58000       6.5800       3.9997   
    6.58500       6.5850       3.9997   
    6.59000       6.5900       3.9997   
    6.59500       6.5950       3.9997   
    6.60000       6.6000       3.9997   
    6.60500       6.6050       3.9997   
    6.61000       6.6100       3.9997   
    6.61500       6.6150       3.9997   
    6.62000       6.6200       3.9997   
    6.62500       6.6250       3.9997   
    6.63000       6.6300       3.9997   
    6.63500       6.6350       3.9997   
    6.64000       6.6400       3.9997   
    6.64500       6.6450       3.9997   
    6.65000       6.6500       3.9997   
    6.65500       6.6550       3.9997   
    6.66000       6.6600       3.9997   
    6.66500       6.6650       3.9997   
    6.67000       6.6700       3.9997   
    6.67500       6.6750       3.9997   
    6.68000       6.6800       3.9997   
    6.68500       6.6850       3.9997   
    6.69000       6.6900       3.9997   
    6.69500       6.6950       3.9997   
    6.70000       6.7000       3.9997   
    6.70500       6.7050       3.9997   
    6.71000       6.7100       3.9997   
    6.71500       6.7150       3.9997   
    6.72000       6.7200       3.9997   
    6.72500       6.7250       3.9997   
    6.73000       6.7300       3.9997   
    6.73500       6.7350       3.9997   
    6.74000       6.7400       3.9997   
    6.74500       6.7450       3.9997   
    6.75000       6.7500       3.9997   
    6.75500       6.7550       3.9997   
    6.76000       6.7600       3.9997   
    6.76500       6.7650       3.9997   
    6.77000       6.7700       3.9997   
    6.77500       6.7750       3.9997   
    6.78000       6.7800       3.9997   
    6.78500       6.7850       3.9997   
    6.79000       6.7900       3.9997   
    6.79500       6.7950       3.9997   
    6.80000       6.8000       3.9997   
    6.80500       6.8050       3.9997   
    6.81000       6.8100       3.9997   
    6.81500       6.8150       3.9997   
    6.82000       6.8200       3.9997   
    6.82500       6.8250       3.9997   
    6.83000       6.8300       3.9997   
    6.83500       6.8350       3.9997   
    6.84000       6.8400       3.9997   
    6.84500       6.8450       3.9997   
    6.85000       6.8500       3.9997   
    6.85500       6.8550       3.9997   
    6.86000       6.8600       3.9997   
    6.86500       6.8650       3.9997   
    6.87000       6.8700       3.9997   
    6.87500       6.8750       3.9997   
    6.88000       6.8800       3.9997   
    6.88500       6.8850       3.9997   
    6.89000       6.8900       3.9997   
    6.89500       6.8950       3.9997   
    6.90000       6.9000       3.9997   
    6.90500       6.9050       3.9997   
    6.91000       6.9100       3.9997   
    6.91500       6.9150       3.9997   
    6.92000       6.9200       3.9997   
    6.92500       6.9250       3.9997   
    6.93000       6.9300       3.9997   
    6.93500       6.9350       3.9997   
    6.94000       6.9400       3.9997   
    6.94500       6.9450       3.9997   
    6.95000       6.9500       3.9997   
    6.95500       6.9550       3.9997   
    6.96000       6.9600       3.9997   
    6.96500       6.9650       3.9997   
    6.97000       6.9700       3.9997   
    6.97500       6.9750       3.9997   
    6.98000       6.9800       3.9997   
    6.98500       6.9850       3.9997   
    6.99000       6.9900       3.9997   
    6.99500       6.9950       3.9997   
    7.00000       7.0000       3.9997   
    7.00500       7.0050       3.9997   
    7.01000       7.0100       3.9997   
    7.01500       7.0150       3.9997   
    7.02000       7.0200       3.9997   
    7.02500       7.0250       3.9997   
    7.03000       7.0300       3.9997   
    7.03500       7.0350       3.9997   
    7.04000       7.0400       3.9997   
    7.04500       7.0450       3.9997   
    7.05000       7.0500       3.9997   
    7.05500       7.0550       3.9997   
    7.06000       7.0600       3.9997   
    7.06500       7.0650       3.9997   
    7.07000       7.0700       3.9997   
    7.07500       7.0750       3.9997   
    7.08000       7.0800       3.9997   
    7.08500       7.0850       3.9997   
    7.09000       7.0900       3.9997   
    7.09500       7.0950       3.9997   
    7.10000       7.1000       3.9997   
    7.10500       7.1050       3.9997   
    7.11000       7.1100       3.9997   
    7.11500       7.1150       3.9997   
    7.12000       7.1200       3.9997   
    7.12500       7.1250       3.9997   
    7.13000       7.1300       3.9997   
    7.13500       7.1350       3.9997   
    7.14000       7.1400       3.9997   
    7.14500       7.1450       3.9997   
    7.15000       7.1500       3.9997   
    7.15500       7.1550       3.9997   
    7.16000       7.1600       3.9997   
    7.16500       7.1650       3.9997   
    7.17000       7.1700       3.9997   
    7.17500       7.1750       3.9997   
    7.18000       7.1800       3.9997   
    7.18500       7.1850       3.9997   
    7.19000       7.1900       3.9997   
    7.19500       7.1950       3.9997   
    7.20000       7.2000       3.9996   
    7.20500       7.2050       3.9996   
    7.21000       7.2100       3.9996   
    7.21500       7.2150       3.9996   
    7.22000       7.2200       3.9996   
    7.22500       7.2250       3.9996   
    7.23000       7.2300       3.9996   
    7.23500       7.2350       3.9996   
    7.24000       7.2400       3.9996   
    7.24500       7.2450       3.9996   
    7.25000       7.2500       3.9996   
    7.25500       7.2550       3.9996   
    7.26000       7.2600       3.9996   
    7.26500       7.2650       3.9996   
    7.27000       7.2700       3.9996   
    7.27500       7.2750       3.9996   
    7.28000       7.2800       3.9996   
    7.28500       7.2850       3.9996   
    7.29000       7.2900       3.9996   
    7.29500       7.2950       3.9996   
    7.30000       7.3000       3.9996   
    7.30500       7.3050       3.9996   
    7.31000       7.3100       3.9996   
    7.31500       7.3150       3.9996   
    7.32000       7.3200       3.9996   
    7.32500       7.3250       3.9996   
    7.33000       7.3300       3.9996   
    7.33500       7.3350       3.9996   
    7.34000       7.3400       3.9996   
    7.34500       7.3450       3.9996   
    7.35000       7.3500       3.9996   
    7.35500       7.3550       3.9996   
    7.36000       7.3600       3.9996   
    7.36500       7.3650       3.9996   
    7.37000       7.3700       3.9996   
    7.37500       7.3750       3.9996   
    7.38000       7.3800       3.9996   
    7.38500       7.3850       3.9996   
    7.39000       7.3900       3.9996   
    7.39500       7.3950       3.9996   
    7.40000       7.4000       3.9996   
    7.40500       7.4050       3.9996   
    7.41000       7.4100       3.9996   
    7.41500       7.4150       3.9996   
    7.42000       7.4200       3.9996   
    7.42500       7.4250       3.9996   
    7.43000       7.4300       3.9996   
    7.43500       7.4350       3.9996   
    7.44000       7.4400       3.9996   
    7.44500       7.4450       3.9996   
    7.45000       7.4500       3.9996   
    7.45500       7.4550       3.9996   
    7.46000       7.4600       3.9996   
    7.46500       7.4650       3.9996   
    7.47000       7.4700       3.9996   
    7.47500       7.4750       3.9996   
    7.48000       7.4800       3.9996   
    7.48500       7.4850       3.9996   
    7.49000       7.4900       3.9996   
    7.49500       7.4950       3.9996   
    7.50000       7.5000       3.9996   
    7.50500       7.5050       3.9996   
    7.51000       7.5100       3.9996   
    7.51500       7.5150       3.9996   
    7.52000       7.5200       3.9996   
    7.52500       7.5250       3.9996   
    7.53000       7.5300       3.9996   
    7.53500       7.5350       3.9996   
    7.54000       7.5400       3.9996   
    7.54500       7.5450       3.9996   
    7.55000       7.5500       3.9996   
    7.55500       7.5550       3.9996   
    7.56000       7.5600       3.9996   
    7.56500       7.5650       3.9996   
    7.57000       7.5700       3.9996   
    7.57500       7.5750       3.9996   
    7.58000       7.5800       3.9996   
    7.58500       7.5850       3.9996   
    7.59000       7.5900       3.9996   
    7.59500       7.5950       3.9996   
    7.60000       7.6000       3.9996   
    7.60500       7.6050       3.9996   
    7.61000       7.6100       3.9996   
    7.61500       7.6150       3.9996   
    7.62000       7.6200       3.9996   
    7.62500       7.6250       3.9996   
    7.63000       7.6300       3.9996   
    7.63500       7.6350       3.9996   
    7.64000       7.6400       3.9996   
    7.64500       7.6450       3.9996   
    7.65000       7.6500       3.9996   
    7.65500       7.6550       3.9996   
    7.66000       7.6600       3.9996   
    7.66500       7.6650       3.9996   
    7.67000       7.6700       3.9996   
    7.67500       7.6750       3.9996   
    7.68000       7.6800       3.9996   
    7.68500       7.6850       3.9995   
    7.69000       7.6900       3.9995   
    7.69500       7.6950       3.9995   
    7.70000       7.7000       3.9995   
    7.70500       7.7050       3.9995   
    7.71000       7.7100       3.9995   
    7.71500       7.7150       3.9995   
    7.72000       7.7200       3.9995   
    7.72500       7.7250       3.9995   
    7.73000       7.7300       3.9995   
    7.73500       7.7350       3.9995   
    7.74000       7.7400       3.9995   
    7.74500       7.7450       3.9995   
    7.75000       7.7500       3.9995   
    7.75500       7.7550       3.9995   
    7.76000       7.7600       3.9995   
    7.76500       7.7650       3.9995   
    7.77000       7.7700       3.9995   
    7.77500       7.7750       3.9995   
    7.78000       7.7800       3.9995   
    7.78500       7.7850       3.9995   
    7.79000       7.7900       3.9995   
    7.79500       7.7950       3.9995   
    7.80000       7.8000       3.9995   
    7.80500       7.8050       3.9995   
    7.81000       7.8100       3.9995   
    7.81500       7.8150       3.9995   
    7.82000       7.8200       3.9995   
    7.82500       7.8250       3.9995   
    7.83000       7.8300       3.9995   
    7.83500       7.8350       3.9995   
    7.84000       7.8400       3.9995   
    7.84500       7.8450       3.9995   
    7.85000       7.8500       3.9995   
    7.85500       7.8550       3.9995   
    7.86000       7.8600       3.9995   
    7.86500       7.8650       3.9995   
    7.87000       7.8700       3.9995   
    7.87500       7.8750       3.9995   
    7.88000       7.8800       3.9995   
    7.88500       7.8850       3.9995   
    7.89000       7.8900       3.9995   
    7.89500       7.8950       3.9995   
    7.90000       7.9000       3.9995   
    7.90500       7.9050       3.9995   
    7.91000       7.9100       3.9995   
    7.91500       7.9150       3.9995   
    7.92000       7.9200       3.9995   
    7.92500       7.9250       3.9995   
    7.93000       7.9300       3.9995   
    7.93500       7.9350       3.9995   
    7.94000       7.9400       3.9995   
    7.94500       7.9450       3.9995   
    7.95000       7.9500       3.9995   
    7.95500       7.9550       3.9995   
    7.96000       7.9600       3.9995   
    7.96500       7.9650       3.9995   
    7.97000       7.9700       3.9995   
    7.97500       7.9750       3.9995   
    7.98000       7.9800       3.9995   
    7.98500       7.9850       3.9995   
    7.99000       7.9900       3.9995   
    7.99500       7.9950       3.9995   
    8.00000       8.0000       3.9995   
    8.00500       8.0050       3.9995   
    8.01000       8.0100       3.9995   
    8.01500       8.0150       3.9995   
    8.02000       8.0200       3.9995   
    8.02500       8.0250       3.9995   
    8.03000       8.0300       3.9995   
    8.03500       8.0350       3.9995   
    8.04000       8.0400       3.9995   
    8.04500       8.0450       3.9995   
    8.05000       8.0500       3.9995   
    8.05500       8.0550       3.9995   
    8.06000       8.0600       3.9994   
    8.06500       8.0650       3.9994   
    8.07000       8.0700       3.9994   
    8.07500       8.0750       3.9994   
    8.08000       8.0800       3.9994   
    8.08500       8.0850       3.9994   
    8.09000       8.0900       3.9994   
    8.09500       8.0950       3.9994   
    8.10000       8.1000       3.9994   
    8.10500       8.1050       3.9994   
    8.11000       8.1100       3.9994   
    8.11500       8.1150       3.9994   
    8.12000       8.1200       3.9994   
    8.12500       8.1250       3.9994   
    8.13000       8.1300       3.9994   
    8.13500       8.1350       3.9994   
    8.14000       8.1400       3.9994   
    8.14500       8.1450       3.9994   
    8.15000       8.1500       3.9994   
    8.15500       8.1550       3.9994   
    8.16000       8.1600       3.9994   
    8.16500       8.1650       3.9994   
    8.17000       8.1700       3.9994   
    8.17500       8.1750       3.9994   
    8.18000       8.1800       3.9994   
    8.18500       8.1850       3.9994   
    8.19000       8.1900       3.9994   
    8.19500       8.1950       3.9994   
    8.20000       8.2000       3.9994   
    8.20500       8.2050       3.9994   
    8.21000       8.2100       3.9994   
    8.21500       8.2150       3.9994   
    8.22000       8.2200       3.9994   
    8.22500       8.2250       3.9994   
    8.23000       8.2300       3.9994   
    8.23500       8.2350       3.9994   
    8.24000       8.2400       3.9994   
    8.24500       8.2450       3.9994   
    8.25000       8.2500       3.9994   
    8.25500       8.2550       3.9994   
    8.26000       8.2600       3.9994   
    8.26500       8.2650       3.9994   
    8.27000       8.2700       3.9994   
    8.27500       8.2750       3.9994   
    8.28000       8.2800       3.9994   
    8.28500       8.2850       3.9994   
    8.29000       8.2900       3.9994   
    8.29500       8.2950       3.9994   
    8.30000       8.3000       3.9994   
    8.30500       8.3050       3.9994   
    8.31000       8.3100       3.9994   
    8.31500       8.3150       3.9994   
    8.32000       8.3200       3.9994   
    8.32500       8.3250       3.9994   
    8.33000       8.3300       3.9994   
    8.33500       8.3350       3.9994   
    8.34000       8.3400       3.9994   
    8.34500       8.3450       3.9994   
    8.35000       8.3500       3.9994   
    8.35500       8.3550       3.9994   
    8.36000       8.3600       3.9993   
    8.36500       8.3650       3.9993   
    8.37000       8.3700       3.9993   
    8.37500       8.3750       3.9993   
    8.38000       8.3800       3.9993   
    8.38500       8.3850       3.9993   
    8.39000       8.3900       3.9993   
    8.39500       8.3950       3.9993   
    8.40000       8.4000       3.9993   
    8.40500       8.4050       3.9993   
    8.41000       8.4100       3.9993   
    8.41500       8.4150       3.9993   
    8.42000       8.4200       3.9993   
    8.42500       8.4250       3.9993   
    8.43000       8.4300       3.9993   
    8.43500       8.4350       3.9993   
    8.44000       8.4400       3.9993   
    8.44500       8.4450       3.9993   
    8.45000       8.4500       3.9993   
    8.45500       8.4550       3.9993   
    8.46000       8.4600       3.9993   
    8.46500       8.4650       3.9993   
    8.47000       8.4700       3.9993   
    8.47500       8.4750       3.9993   
    8.48000       8.4800       3.9993   
    8.48500       8.4850       3.9993   
    8.49000       8.4900       3.9993   
    8.49500       8.4950       3.9993   
    8.50000       8.5000       3.9993   
    8.50500       8.5050       3.9993   
    8.51000       8.5100       3.9993   
    8.51500       8.5150       3.9993   
    8.52000       8.5200       3.9993   
    8.52500       8.5250       3.9993   
    8.53000       8.5300       3.9993   
    8.53500       8.5350       3.9993   
    8.54000       8.5400       3.9993   
    8.54500       8.5450       3.9993   
    8.55000       8.5500       3.9993   
    8.55500       8.5550       3.9993   
    8.56000       8.5600       3.9993   
    8.56500       8.5650       3.9993   
    8.57000       8.5700       3.9993   
    8.57500       8.5750       3.9993   
    8.58000       8.5800       3.9993   
    8.58500       8.5850       3.9993   
    8.59000       8.5900       3.9993   
    8.59500       8.5950       3.9993   
    8.60000       8.6000       3.9993   
    8.60500       8.6050       3.9993   
    8.61000       8.6100       3.9993   
    8.61500       8.6150       3.9992   
    8.62000       8.6200       3.9992   
    8.62500       8.6250       3.9992   
    8.63000       8.6300       3.9992   
    8.63500       8.6350       3.9992   
    8.64000       8.6400       3.9992   
    8.64500       8.6450       3.9992   
    8.65000       8.6500       3.9992   
    8.65500       8.6550       3.9992   
    8.66000       8.6600       3.9992   
    8.66500       8.6650       3.9992   
[...]
   57.78500      57.7850    -184.3781   
   57.79000      57.7900    -184.4082   
   57.79500      57.7950    -184.4383   
   57.80000      57.8000    -184.4684   
   57.80500      57.8050    -184.4985   
   57.81000      57.8100    -184.5285   
   57.81500      57.8150    -184.5586   
   57.82000      57.8200    -184.5887   
   57.82500      57.8250    -184.6188   
   57.83000      57.8300    -184.6489   
   57.83500      57.8350    -184.6790   
   57.84000      57.8400    -184.7091   
   57.84500      57.8450    -184.7392   
   57.85000      57.8500    -184.7693   
   57.85500      57.8550    -184.7994   
   57.86000      57.8600    -184.8294   
   57.86500      57.8650    -184.8595   
   57.87000      57.8700    -184.8896   
   57.87500      57.8750    -184.9197   
   57.88000      57.8800    -184.9498   
   57.88500      57.8850    -184.9799   
   57.89000      57.8900    -185.0100   
   57.89500      57.8950    -185.0401   
   57.90000      57.9000    -185.0702   
   57.90500      57.9050    -185.1003   
   57.91000      57.9100    -185.1304   
   57.91500      57.9150    -185.1605   
   57.92000      57.9200    -185.1905   
   57.92500      57.9250    -185.2206   
   57.93000      57.9300    -185.2507   
   57.93500      57.9350    -185.2808   
   57.94000      57.9400    -185.3109   
   57.94500      57.9450    -185.3410   
   57.95000      57.9500    -185.3711   
   57.95500      57.9550    -185.4012   
   57.96000      57.9600    -185.4313   
   57.96500      57.9650    -185.4614   
   57.97000      57.9700    -185.4915   
   57.97500      57.9750    -185.5216   
   57.98000      57.9800    -185.5517   
   57.98500      57.9850    -185.5818   
   57.99000      57.9900    -185.6119   
   57.99500      57.9950    -185.6420   
   58.00000      58.0000    -185.6721   
   58.00500      58.0050    -185.7022   
   58.01000      58.0100    -185.7323   
   58.01500      58.0150    -185.7624   
   58.02000      58.0200    -185.7925   
   58.02500      58.0250    -185.8226   
   58.03000      58.0300    -185.8527   
   58.03500      58.0350    -185.8828   
   58.04000      58.0400    -185.9129   
   58.04500      58.0450    -185.9430   
   58.05000      58.0500    -185.9731   
   58.05500      58.0550    -186.0032   
   58.06000      58.0600    -186.0333   
   58.06500      58.0650    -186.0634   
   58.07000      58.0700    -186.0935   
   58.07500      58.0750    -186.1236   
   58.08000      58.0800    -186.1537   
   58.08500      58.0850    -186.1838   
   58.09000      58.0900    -186.2139   
   58.09500      58.0950    -186.2440   
   58.10000      58.1000    -186.2741   
   58.10500      58.1050    -186.3042   
   58.11000      58.1100    -186.3343   
   58.11500      58.1150    -186.3644   
   58.12000      58.1200    -186.3945   
   58.12500      58.1250    -186.4246   
   58.13000      58.1300    -186.4547   
   58.13500      58.1350    -186.4848   
   58.14000      58.1400    -186.5149   
   58.14500      58.1450    -186.5450   
   58.15000      58.1500    -186.5751   
   58.15500      58.1550    -186.6052   
   58.16000      58.1600    -186.6353   
   58.16500      58.1650    -186.6654   
   58.17000      58.1700    -186.6955   
   58.17500      58.1750    -186.7256   
   58.18000      58.1800    -186.7557   
   58.18500      58.1850    -186.7858   
   58.19000      58.1900    -186.8159   
   58.19500      58.1950    -186.8461   
   58.20000      58.2000    -186.8762   
   58.20500      58.2050    -186.9063   
   58.21000      58.2100    -186.9364   
   58.21500      58.2150    -186.9665   
   58.22000      58.2200    -186.9966   
   58.22500      58.2250    -187.0267   
   58.23000      58.2300    -187.0568   
   58.23500      58.2350    -187.0869   
   58.24000      58.2400    -187.1170   
   58.24500      58.2450    -187.1471   
   58.25000      58.2500    -187.1772   
   58.25500      58.2550    -187.2073   
   58.26000      58.2600    -187.2375   
   58.26500      58.2650    -187.2676   
   58.27000      58.2700    -187.2977   
   58.27500      58.2750    -187.3278   
   58.28000      58.2800    -187.3579   
   58.28500      58.2850    -187.3880   
   58.29000      58.2900    -187.4181   
   58.29500      58.2950    -187.4482   
   58.30000      58.3000    -187.4783   
   58.30500      58.3050    -187.5085   
   58.31000      58.3100    -187.5386   
   58.31500      58.3150    -187.5687   
   58.32000      58.3200    -187.5988   
   58.32500      58.3250    -187.6289   
   58.33000      58.3300    -187.6590   
   58.33500      58.3350    -187.6891   
   58.34000      58.3400    -187.7192   
   58.34500      58.3450    -187.7494   
   58.35000      58.3500    -187.7795   
   58.35500      58.3550    -187.8096   
   58.36000      58.3600    -187.8397   
   58.36500      58.3650    -187.8698   
   58.37000      58.3700    -187.8999   
   58.37500      58.3750    -187.9300   
   58.38000      58.3800    -187.9602   
   58.38500      58.3850    -187.9903   
   58.39000      58.3900    -188.0204   
   58.39500      58.3950    -188.0505   
   58.40000      58.4000    -188.0806   
   58.40500      58.4050    -188.1107   
   58.41000      58.4100    -188.1408   
   58.41500      58.4150    -188.1710   
   58.42000      58.4200    -188.2011   
   58.42500      58.4250    -188.2312   
   58.43000      58.4300    -188.2613   
   58.43500      58.4350    -188.2914   
   58.44000      58.4400    -188.3215   
   58.44500      58.4450    -188.3517   
   58.45000      58.4500    -188.3818   
   58.45500      58.4550    -188.4119   
   58.46000      58.4600    -188.4420   
   58.46500      58.4650    -188.4721   
   58.47000      58.4700    -188.5023   
   58.47500      58.4750    -188.5324   
   58.48000      58.4800    -188.5625   
   58.48500      58.4850    -188.5926   
   58.49000      58.4900    -188.6227   
   58.49500      58.4950    -188.6529   
   58.50000      58.5000    -188.6830   
   58.50500      58.5050    -188.7131   
   58.51000      58.5100    -188.7432   
   58.51500      58.5150    -188.7733   
   58.52000      58.5200    -188.8035   
   58.52500      58.5250    -188.8336   
   58.53000      58.5300    -188.8637   
   58.53500      58.5350    -188.8938   
   58.54000      58.5400    -188.9239   
   58.54500      58.5450    -188.9541   
   58.55000      58.5500    -188.9842   
   58.55500      58.5550    -189.0143   
   58.56000      58.5600    -189.0444   
   58.56500      58.5650    -189.0746   
   58.57000      58.5700    -189.1047   
   58.57500      58.5750    -189.1348   
   58.58000      58.5800    -189.1649   
   58.58500      58.5850    -189.1951   
   58.59000      58.5900    -189.2252   
   58.59500      58.5950    -189.2553   
   58.60000      58.6000    -189.2854   
   58.60500      58.6050    -189.3156   
   58.61000      58.6100    -189.3457   
   58.61500      58.6150    -189.3758   
   58.62000      58.6200    -189.4059   
   58.62500      58.6250    -189.4361   
   58.63000      58.6300    -189.4662   
   58.63500      58.6350    -189.4963   
   58.64000      58.6400    -189.5264   
   58.64500      58.6450    -189.5566   
   58.65000      58.6500    -189.5867   
   58.65500      58.6550    -189.6168   
   58.66000      58.6600    -189.6469   
   58.66500      58.6650    -189.6771   
   58.67000      58.6700    -189.7072   
   58.67500      58.6750    -189.7373   
   58.68000      58.6800    -189.7675   
   58.68500      58.6850    -189.7976   
   58.69000      58.6900    -189.8277   
   58.69500      58.6950    -189.8578   
   58.70000      58.7000    -189.8880   
   58.70500      58.7050    -189.9181   
   58.71000      58.7100    -189.9482   
   58.71500      58.7150    -189.9784   
   58.72000      58.7200    -190.0085   
   58.72500      58.7250    -190.0386   
   58.73000      58.7300    -190.0688   
   58.73500      58.7350    -190.0989   
   58.74000      58.7400    -190.1290   
   58.74500      58.7450    -190.1591   
   58.75000      58.7500    -190.1893   
   58.75500      58.7550    -190.2194   
   58.76000      58.7600    -190.2495   
   58.76500      58.7650    -190.2797   
   58.77000      58.7700    -190.3098   
   58.77500      58.7750    -190.3399   
   58.78000      58.7800    -190.3701   
   58.78500      58.7850    -190.4002   
   58.79000      58.7900    -190.4303   
   58.79500      58.7950    -190.4605   
   58.80000      58.8000    -190.4906   
   58.80500      58.8050    -190.5207   
   58.81000      58.8100    -190.5509   
   58.81500      58.8150    -190.5810   
   58.82000      58.8200    -190.6111   
   58.82500      58.8250    -190.6413   
   58.83000      58.8300    -190.6714   
   58.83500      58.8350    -190.7016   
   58.84000      58.8400    -190.7317   
   58.84500      58.8450    -190.7618   
   58.85000      58.8500    -190.7920   
   58.85500      58.8550    -190.8221   
   58.86000      58.8600    -190.8522   
   58.86500      58.8650    -190.8824   
   58.87000      58.8700    -190.9125   
   58.87500      58.8750    -190.9426   
   58.88000      58.8800    -190.9728   
   58.88500      58.8850    -191.0029   
   58.89000      58.8900    -191.0331   
   58.89500      58.8950    -191.0632   
   58.90000      58.9000    -191.0933   
   58.90500      58.9050    -191.1235   
   58.91000      58.9100    -191.1536   
   58.91500      58.9150    -191.1837   
   58.92000      58.9200    -191.2139   
   58.92500      58.9250    -191.2440   
   58.93000      58.9300    -191.2742   
   58.93500      58.9350    -191.3043   
   58.94000      58.9400    -191.3344   
   58.94500      58.9450    -191.3646   
   58.95000      58.9500    -191.3947   
   58.95500      58.9550    -191.4249   
   58.96000      58.9600    -191.4550   
   58.96500      58.9650    -191.4851   
   58.97000      58.9700    -191.5153   
   58.97500      58.9750    -191.5454   
   58.98000      58.9800    -191.5756   
   58.98500      58.9850    -191.6057   
   58.99000      58.9900    -191.6359   
   58.99500      58.9950    -191.6660   
   59.00000      59.0000    -191.6961   
   59.00500      59.0050    -191.7263   
   59.01000      59.0100    -191.7564   
   59.01500      59.0150    -191.7866   
   59.02000      59.0200    -191.8167   
   59.02500      59.0250    -191.8469   
   59.03000      59.0300    -191.8770   
   59.03500      59.0350    -191.9071   
   59.04000      59.0400    -191.9373   
   59.04500      59.0450    -191.9674   
   59.05000      59.0500    -191.9976   
   59.05500      59.0550    -192.0277   
   59.06000      59.0600    -192.0579   
   59.06500      59.0650    -192.0880   
   59.07000      59.0700    -192.1182   
   59.07500      59.0750    -192.1483   
   59.08000      59.0800    -192.1785   
   59.08500      59.0850    -192.2086   
   59.09000      59.0900    -192.2387   
   59.09500      59.0950    -192.2689   
   59.10000      59.1000    -192.2990   
   59.10500      59.1050    -192.3292   
   59.11000      59.1100    -192.3593   
   59.11500      59.1150    -192.3895   
   59.12000      59.1200    -192.4196   
   59.12500      59.1250    -192.4498   
   59.13000      59.1300    -192.4799   
   59.13500      59.1350    -192.5101   
   59.14000      59.1400    -192.5402   
   59.14500      59.1450    -192.5704   
   59.15000      59.1500    -192.6005   
   59.15500      59.1550    -192.6307   
   59.16000      59.1600    -192.6608   
   59.16500      59.1650    -192.6910   
   59.17000      59.1700    -192.7211   
   59.17500      59.1750    -192.7513   
   59.18000      59.1800    -192.7814   
   59.18500      59.1850    -192.8116   
   59.19000      59.1900    -192.8417   
   59.19500      59.1950    -192.8719   
   59.20000      59.2000    -192.9020   
   59.20500      59.2050    -192.9322   
   59.21000      59.2100    -192.9623   
   59.21500      59.2150    -192.9925   
   59.22000      59.2200    -193.0226   
   59.22500      59.2250    -193.0528   
   59.23000      59.2300    -193.0829   
   59.23500      59.2350    -193.1131   
   59.24000      59.2400    -193.1433   
   59.24500      59.2450    -193.1734   
   59.25000      59.2500    -193.2036   
   59.25500      59.2550    -193.2337   
   59.26000      59.2600    -193.2639   
   59.26500      59.2650    -193.2940   
   59.27000      59.2700    -193.3242   
   59.27500      59.2750    -193.3543   
   59.28000      59.2800    -193.3845   
   59.28500      59.2850    -193.4146   
   59.29000      59.2900    -193.4448   
   59.29500      59.2950    -193.4749   
   59.30000      59.3000    -193.5051   
   59.30500      59.3050    -193.5353   
   59.31000      59.3100    -193.5654   
   59.31500      59.3150    -193.5956   
   59.32000      59.3200    -193.6257   
   59.32500      59.3250    -193.6559   
   59.33000      59.3300    -193.6860   
   59.33500      59.3350    -193.7162   
   59.34000      59.3400    -193.7464   
   59.34500      59.3450    -193.7765   
   59.35000      59.3500    -193.8067   
   59.35500      59.3550    -193.8368   
   59.36000      59.3600    -193.8670   
   59.36500      59.3650    -193.8972   
   59.37000      59.3700    -193.9273   
   59.37500      59.3750    -193.9575   
   59.38000      59.3800    -193.9876   
   59.38500      59.3850    -194.0178   
   59.39000      59.3900    -194.0479   
   59.39500      59.3950    -194.0781   
   59.40000      59.4000    -194.1083   
   59.40500      59.4050    -194.1384   
   59.41000      59.4100    -194.1686   
   59.41500      59.4150    -194.1987   
   59.42000      59.4200    -194.2289   
   59.42500      59.4250    -194.2591   
   59.43000      59.4300    -194.2892   
   59.43500      59.4350    -194.3194   
   59.44000      59.4400    -194.3496   
   59.44500      59.4450    -194.3797   
   59.45000      59.4500    -194.4099   
   59.45500      59.4550    -194.4400   
   59.46000      59.4600    -194.4702   
   59.46500      59.4650    -194.5004   
   59.47000      59.4700    -194.5305   
   59.47500      59.4750    -194.5607   
   59.48000      59.4800    -194.5909   
   59.48500      59.4850    -194.6210   
   59.49000      59.4900    -194.6512   
   59.49500      59.4950    -194.6814   
   59.50000      59.5000    -194.7115   
   59.50500      59.5050    -194.7417   
   59.51000      59.5100    -194.7718   
   59.51500      59.5150    -194.8020   
   59.52000      59.5200    -194.8322   
   59.52500      59.5250    -194.8623   
   59.53000      59.5300    -194.8925   
   59.53500      59.5350    -194.9227   
   59.54000      59.5400    -194.9528   
   59.54500      59.5450    -194.9830   
   59.55000      59.5500    -195.0132   
   59.55500      59.5550    -195.0433   
   59.56000      59.5600    -195.0735   
   59.56500      59.5650    -195.1037   
   59.57000      59.5700    -195.1338   
   59.57500      59.5750    -195.1640   
   59.58000      59.5800    -195.1942   
   59.58500      59.5850    -195.2243   
   59.59000      59.5900    -195.2545   
   59.59500      59.5950    -195.2847   
   59.60000      59.6000    -195.3148   
   59.60500      59.6050    -195.3450   
   59.61000      59.6100    -195.3752   
   59.61500      59.6150    -195.4054   
   59.62000      59.6200    -195.4355   
   59.62500      59.6250    -195.4657   
   59.63000      59.6300    -195.4959   
   59.63500      59.6350    -195.5260   
   59.64000      59.6400    -195.5562   
   59.64500      59.6450    -195.5864   
   59.65000      59.6500    -195.6165   
   59.65500      59.6550    -195.6467   
   59.66000      59.6600    -195.6769   
   59.66500      59.6650    -195.7071   
   59.67000      59.6700    -195.7372   
   59.67500      59.6750    -195.7674   
   59.68000      59.6800    -195.7976   
   59.68500      59.6850    -195.8277   
   59.69000      59.6900    -195.8579   
   59.69500      59.6950    -195.8881   
   59.70000      59.7000    -195.9183   
   59.70500      59.7050    -195.9484   
   59.71000      59.7100    -195.9786   
   59.71500      59.7150    -196.0088   
   59.72000      59.7200    -196.0390   
   59.72500      59.7250    -196.0691   
   59.73000      59.7300    -196.0993   
   59.73500      59.7350    -196.1295   
   59.74000      59.7400    -196.1597   
   59.74500      59.7450    -196.1898   
   59.75000      59.7500    -196.2200   
   59.75500      59.7550    -196.2502   
   59.76000      59.7600    -196.2804   
   59.76500      59.7650    -196.3105   
   59.77000      59.7700    -196.3407   
   59.77500      59.7750    -196.3709   
   59.78000      59.7800    -196.4011   
   59.78500      59.7850    -196.4312   
   59.79000      59.7900    -196.4614   
   59.79500      59.7950    -196.4916   
   59.80000      59.8000    -196.5218   
   59.80500      59.8050    -196.5519   
   59.81000      59.8100    -196.5821   
   59.81500      59.8150    -196.6123   
   59.82000      59.8200    -196.6425   
   59.82500      59.8250    -196.6727   
   59.83000      59.8300    -196.7028   
   59.83500      59.8350    -196.7330   
   59.84000      59.8400    -196.7632   
   59.84500      59.8450    -196.7934   
   59.85000      59.8500    -196.8236   
   59.85500      59.8550    -196.8537   
   59.86000      59.8600    -196.8839   
   59.86500      59.8650    -196.9141   
   59.87000      59.8700    -196.9443   
   59.87500      59.8750    -196.9745   
   59.88000      59.8800    -197.0046   
   59.88500      59.8850    -197.0348   
   59.89000      59.8900    -197.0650   
   59.89500      59.8950    -197.0952   
   59.90000      59.9000    -197.1254   
   59.90500      59.9050    -197.1555   
   59.91000      59.9100    -197.1857   
   59.91500      59.9150    -197.2159   
   59.92000      59.9200    -197.2461   
   59.92500      59.9250    -197.2763   
   59.93000      59.9300    -197.3065   
   59.93500      59.9350    -197.3366   
   59.94000      59.9400    -197.3668   
   59.94500      59.9450    -197.3970   
   59.95000      59.9500    -197.4272   
   59.95500      59.9550    -197.4574   
   59.96000      59.9600    -197.4876   
   59.96500      59.9650    -197.5177   
   59.97000      59.9700    -197.5479   
   59.97500      59.9750    -197.5781   
   59.98000      59.9800    -197.6083   
   59.98500      59.9850    -197.6385   
   59.99000      59.9900    -197.6687   
   59.99500      59.9950    -197.6988   
   60.00000      60.0000    -197.7290   
y

          ***** job concluded
1****** HSPICE -- C-2009.03-SP1 32-BIT (May 25 2009) winnt ******               
 ******  
 ** super cell 1 max current

  ******  job statistics summary tnom=  25.000 temp=  25.000 *****

  ******  HSPICE Threads Information  ******
  Command Line Threads Count                  :     1
  Available CPU Count                         :     8
  Actual Model Evaluation(Load) Threads Count :     1
  Actual Solver Threads Count                 :     1


  ******  Circuit Statistics  ******
  # nodes       =       5 # elements   =      11
  # resistors   =       4 # capacitors =       0 # inductors   =       0
  # mutual_inds =       0 # vccs       =       0 # vcvs        =       0
  # cccs        =       0 # ccvs       =       0 # volt_srcs   =       1
  # curr_srcs   =       2 # diodes     =       4 # bjts        =       0
  # jfets       =       0 # mosfets    =       0 # U elements  =       0
  # T elements  =       0 # W elements =       0 # B elements  =       0
  # S elements  =       0 # P elements =       0 # va device   =       0


  ******  Runtime Statistics (seconds)  ******

  analysis           time    # points   tot. iter  conv.iter
  op point           0.00           1           0
  dc sweep           0.33       12001       24024
  readin             0.07
  errchk             0.01
  setup              0.02
  output             0.04


           total memory used          352  kbytes
           total cpu time            0.51 seconds
           total elapsed time        0.55 seconds
           job started at     22:35:11 06/23/2015
           job ended   at     22:35:11 06/23/2015


 Init: hspice initialization file: C:\synopsys\Hspice_C-2009.03-SP1\hspice.ini
  lic: Release hspice token(s) 
